
     RDKit          3D

 31 35  0  0  0  0  0  0  0  0999 V2000
    2.1375    0.7316   -1.2149 C   0  0  0  0  0  0  0  0  0  0  0  0
   -4.9932    1.3086   -0.9880 C   0  0  0  0  0  0  0  0  0  0  0  0
   -7.1812    1.0974    0.0348 C   0  0  0  0  0  0  0  0  0  0  0  0
   -5.5573    2.0467   -2.0334 C   0  0  0  0  0  0  0  0  0  0  0  0
   -7.7401    1.8350   -1.0135 C   0  0  0  0  0  0  0  0  0  0  0  0
    0.8083    0.8706   -0.7745 C   0  0  0  0  0  0  0  0  0  0  0  0
    5.3283    1.0177    0.3688 C   0  0  0  0  0  0  0  0  0  0  0  0
    6.6357   -0.8709   -0.4485 C   0  0  0  0  0  0  0  0  0  0  0  0
    6.0787    1.9632   -0.5997 C   0  0  0  0  0  0  0  0  0  0  0  0
    7.5728    0.2348   -0.9759 C   0  0  0  0  0  0  0  0  0  0  0  0
    2.3522   -1.3758    0.0197 C   0  0  0  0  0  0  0  0  0  0  0  0
   -4.0027   -2.1838    2.9912 C   0  0  0  0  0  0  0  0  0  0  0  0
    4.3441   -0.5250   -1.2796 C   0  0  0  0  0  0  0  0  0  0  0  0
    2.9149   -0.3913   -0.8243 C   0  0  0  0  0  0  0  0  0  0  0  0
   -5.8024    0.8160    0.0540 C   0  0  0  0  0  0  0  0  0  0  0  0
   -6.9295    2.3071   -2.0483 C   0  0  0  0  0  0  0  0  0  0  0  0
    0.2946   -0.1276    0.0479 C   0  0  0  0  0  0  0  0  0  0  0  0
    1.0337   -1.2044    0.4321 C   0  0  0  0  0  0  0  0  0  0  0  0
   -3.3933   -1.4725    2.0564 C   0  0  0  0  0  0  0  0  0  0  0  0
   -2.0025   -1.8648    2.1215 C   0  0  0  0  0  0  0  0  0  0  0  0
   -0.8836   -1.3622    1.3090 C   0  0  0  0  0  0  0  0  0  0  0  0
   -5.2231    0.0380    1.1752 C   0  0  0  0  0  0  0  0  0  0  0  0
   -7.4731    3.0239   -3.0627 F   0  0  0  0  0  0  0  0  0  0  0  0
   -3.0749   -3.0093    3.7078 N   0  0  0  0  0  4  0  0  0  0  0  0
   -0.9232   -0.2071    0.5965 N   0  0  0  0  0  0  0  0  0  0  0  0
    0.3138   -2.0036    1.2393 N   0  0  0  0  0  0  0  0  0  0  0  0
   -4.0301   -0.7459    0.9958 N   0  0  0  0  0  0  0  0  0  0  0  0
   -1.8533   -2.7330    3.0644 N   0  0  0  0  0  0  0  0  0  0  0  0
    5.2755   -0.3698   -0.1386 N   0  0  0  0  0  0  0  0  0  0  0  0
   -5.7894    0.0732    2.3018 O   0  0  0  0  0  0  0  0  0  0  0  0
    6.8315    1.2713   -1.5804 O   0  0  0  0  0  0  0  0  0  0  0  0
  1  6  2  0
  1 14  1  0
  2  4  2  0
  2 15  1  0
  3  5  1  0
  3 15  2  0
  4 16  1  0
  5 16  2  0
  6 17  1  0
  7  9  1  0
  7 29  1  0
  8 10  1  0
  8 29  1  0
  9 31  1  0
 10 31  1  0
 11 14  2  0
 11 18  1  0
 12 19  2  0
 12 24  1  0
 13 14  1  0
 13 29  1  0
 15 22  1  0
 16 23  1  0
 17 18  2  0
 17 25  1  0
 18 26  1  0
 19 20  1  0
 19 27  1  0
 20 21  1  0
 20 28  2  0
 21 25  1  0
 21 26  2  0
 22 27  1  0
 22 30  2  0
 24 28  1  0
M  CHG  1  24   1
M  END
$$$$
