2W1F_L0F_A_1390_
     RDKit          3D

 36 39  0  0  0  0  0  0  0  0999 V2000
    5.7259   28.0608    7.0346 O   0  0  0  0  0  0  0  0  0  0  0  0
    5.8202   28.8841    6.1472 C   0  0  0  0  0  0  0  0  0  0  0  0
    5.4892   30.1865    6.3317 N   0  0  0  0  0  0  0  0  0  0  0  0
    4.8957   30.7236    7.4389 C   0  0  0  0  0  0  0  0  0  0  0  0
    5.0438   30.4045    8.7507 C   0  0  0  0  0  0  0  0  0  0  0  0
    4.2391   31.2246    9.4430 N   0  0  0  0  0  0  0  0  0  0  0  0
    3.5721   32.0663    8.6287 N   0  0  0  0  0  0  0  0  0  0  0  0
    3.9736   31.7554    7.4130 C   0  0  0  0  0  0  0  0  0  0  0  0
    3.4365   32.4889    6.2935 C   0  0  0  0  0  0  0  0  0  0  0  0
    3.4731   32.1084    5.0272 N   0  0  0  0  0  0  0  0  0  0  0  0
    2.8598   33.0784    4.2844 C   0  0  0  0  0  0  0  0  0  0  0  0
    2.6251   33.1882    2.9233 C   0  0  0  0  0  0  0  0  0  0  0  0
    1.9711   34.2903    2.4228 C   0  0  0  0  0  0  0  0  0  0  0  0
    1.5447   35.2885    3.2724 C   0  0  0  0  0  0  0  0  0  0  0  0
    1.7665   35.1917    4.6244 C   0  0  0  0  0  0  0  0  0  0  0  0
    2.4265   34.0897    5.1439 C   0  0  0  0  0  0  0  0  0  0  0  0
    2.8078   33.6836    6.3856 N   0  0  0  0  0  0  0  0  0  0  0  0
    6.3121   28.4907    4.7872 C   0  0  0  0  0  0  0  0  0  0  0  0
    6.5104   29.4506    3.7885 C   0  0  0  0  0  0  0  0  0  0  0  0
    6.9610   29.0717    2.5472 C   0  0  0  0  0  0  0  0  0  0  0  0
    7.2173   27.7448    2.2807 C   0  0  0  0  0  0  0  0  0  0  0  0
    7.0260   26.7888    3.2574 C   0  0  0  0  0  0  0  0  0  0  0  0
    6.5774   27.1537    4.5017 C   0  0  0  0  0  0  0  0  0  0  0  0
    4.1340   31.2462   10.2777 H   0  0  0  0  0  0  0  0  0  0  0  0
    2.6645   34.1206    7.1234 H   0  0  0  0  0  0  0  0  0  0  0  0
    5.7400   30.7462    5.7349 H   0  0  0  0  0  0  0  0  0  0  0  0
    5.5986   29.7399    9.1360 H   0  0  0  0  0  0  0  0  0  0  0  0
    2.9204   32.4980    2.3351 H   0  0  0  0  0  0  0  0  0  0  0  0
    1.8103   34.3630    1.4871 H   0  0  0  0  0  0  0  0  0  0  0  0
    1.0897   36.0484    2.9199 H   0  0  0  0  0  0  0  0  0  0  0  0
    1.4732   35.8819    5.2067 H   0  0  0  0  0  0  0  0  0  0  0  0
    6.3329   30.3612    3.9690 H   0  0  0  0  0  0  0  0  0  0  0  0
    7.0939   29.7269    1.8687 H   0  0  0  0  0  0  0  0  0  0  0  0
    7.5298   27.4864    1.4186 H   0  0  0  0  0  0  0  0  0  0  0  0
    7.2055   25.8772    3.0688 H   0  0  0  0  0  0  0  0  0  0  0  0
    6.4475   26.5005    5.1672 H   0  0  0  0  0  0  0  0  0  0  0  0
  1  2  2  0
  2  3  1  0
  3  4  1  0
  4  5  2  0
  5  6  1  0
  6  7  1  0
  4  8  1  0
  7  8  2  0
  8  9  1  0
  9 10  2  0
 10 11  1  0
 11 12  2  0
 12 13  1  0
 13 14  2  0
 14 15  1  0
 11 16  1  0
 15 16  2  0
  9 17  1  0
 16 17  1  0
  2 18  1  0
 18 19  2  0
 19 20  1  0
 20 21  2  0
 21 22  1  0
 18 23  1  0
 22 23  2  0
  6 24  1  0
 17 25  1  0
  3 26  1  0
  5 27  1  0
 12 28  1  0
 13 29  1  0
 14 30  1  0
 15 31  1  0
 19 32  1  0
 20 33  1  0
 21 34  1  0
 22 35  1  0
 23 36  1  0
M  END
$$$$
