
     RDKit          3D

 23 25  0  0  0  0  0  0  0  0999 V2000
    4.1053   -0.7915   -1.9397 C   0  0  0  0  0  0  0  0  0  0  0  0
    8.3096    0.1359    0.5570 C   0  0  0  0  0  0  0  0  0  0  0  0
   -6.4795    1.3492    0.7572 C   0  0  0  0  0  0  0  0  0  0  0  0
   -6.8906   -0.2776   -1.1343 C   0  0  0  0  0  0  0  0  0  0  0  0
   -2.2186    0.8755    0.0641 C   0  0  0  0  0  0  0  0  0  0  0  0
   -2.6490   -1.2111   -1.0751 C   0  0  0  0  0  0  0  0  0  0  0  0
   -3.5934    1.1060    0.1645 C   0  0  0  0  0  0  0  0  0  0  0  0
   -4.0244   -0.9845   -0.9762 C   0  0  0  0  0  0  0  0  0  0  0  0
    2.5702    0.4315    2.1895 C   0  0  0  0  0  0  0  0  0  0  0  0
    1.2134    0.4892    2.5038 C   0  0  0  0  0  0  0  0  0  0  0  0
    4.9160   -0.4105   -0.7399 C   0  0  0  0  0  0  0  0  0  0  0  0
    6.8412   -0.0331    0.3670 C   0  0  0  0  0  0  0  0  0  0  0  0
   -1.7355   -0.2959   -0.5391 C   0  0  0  0  0  0  0  0  0  0  0  0
   -4.5218    0.1770   -0.3495 C   0  0  0  0  0  0  0  0  0  0  0  0
    2.9479    0.0441    0.8947 C   0  0  0  0  0  0  0  0  0  0  0  0
    4.3789   -0.0426    0.5071 C   0  0  0  0  0  0  0  0  0  0  0  0
    0.6556   -0.1840    0.3070 C   0  0  0  0  0  0  0  0  0  0  0  0
    0.2851    0.1777    1.5646 N   0  0  0  0  0  0  0  0  0  0  0  0
    6.2765   -0.3913   -0.8048 N   0  0  0  0  0  0  0  0  0  0  0  0
   -0.3259   -0.5429   -0.6759 N   0  0  0  0  0  0  0  0  0  0  0  0
    1.9758   -0.2570   -0.0083 N   0  0  0  0  0  0  0  0  0  0  0  0
   -5.9504    0.4144   -0.2438 N   0  0  0  0  0  0  0  0  0  0  0  0
    5.6790    0.3089    1.5263 S   0  0  0  0  0  0  0  0  0  0  0  0
  1 11  1  0
  2 12  1  0
  3 22  1  0
  4 22  1  0
  5  7  2  0
  5 13  1  0
  6  8  1  0
  6 13  2  0
  7 14  1  0
  8 14  2  0
  9 10  2  0
  9 15  1  0
 10 18  1  0
 11 16  2  0
 11 19  1  0
 12 19  2  0
 12 23  1  0
 13 20  1  0
 14 22  1  0
 15 16  1  0
 15 21  2  0
 16 23  1  0
 17 18  2  0
 17 20  1  0
 17 21  1  0
M  END
$$$$
