
     RDKit          3D

 17 18  0  0  0  0  0  0  0  0999 V2000
    2.4056   -0.9957    1.9259 C   0  0  0  0  0  0  0  0  0  0  0  0
    4.6904    0.7090   -2.1520 C   0  0  0  0  0  0  0  0  0  0  0  0
   -0.5261   -1.5662    0.7411 C   0  0  0  0  0  0  0  0  0  0  0  0
   -1.8966   -1.6982    0.9572 C   0  0  0  0  0  0  0  0  0  0  0  0
   -4.3958    1.5340   -0.4735 C   0  0  0  0  0  0  0  0  0  0  0  0
    2.4759   -0.5136    0.5103 C   0  0  0  0  0  0  0  0  0  0  0  0
    3.5446    0.2387   -1.3232 C   0  0  0  0  0  0  0  0  0  0  0  0
   -0.0671   -0.4783   -0.0133 C   0  0  0  0  0  0  0  0  0  0  0  0
    1.3649   -0.2898   -0.3190 C   0  0  0  0  0  0  0  0  0  0  0  0
   -2.3026    0.2704   -0.2904 C   0  0  0  0  0  0  0  0  0  0  0  0
   -2.7569   -0.7877    0.4349 N   0  0  0  0  0  0  0  0  0  0  0  0
   -3.2146    1.1918   -0.9016 N   0  0  0  0  0  0  0  0  0  0  0  0
   -4.8996    1.1662    0.8170 N   0  0  0  0  0  0  0  0  0  0  0  0
    3.6767   -0.2192   -0.0600 N   0  0  0  0  0  0  0  0  0  0  0  0
   -0.9711    0.3978   -0.5295 N   0  0  0  0  0  0  0  0  0  0  0  0
   -4.0873    1.0859    1.8988 O   0  0  0  0  0  0  0  0  0  0  0  0
    1.9313    0.3338   -1.7777 S   0  0  0  0  0  0  0  0  0  0  0  0
  1  6  1  0
  2  7  1  0
  3  4  2  0
  3  8  1  0
  4 11  1  0
  5 12  2  3
  5 13  1  0
  6  9  2  0
  6 14  1  0
  7 14  2  0
  7 17  1  0
  8  9  1  0
  8 15  2  0
  9 17  1  0
 10 11  2  0
 10 12  1  0
 10 15  1  0
 13 16  1  0
M  END
$$$$
