
     RDKit          3D

 29 32  0  0  0  0  0  0  0  0999 V2000
   -5.3320    1.0557   -1.6581 C   0  0  0  0  0  0  0  0  0  0  0  0
   -5.5698   -0.4248   -3.6836 C   0  0  0  0  0  0  0  0  0  0  0  0
    5.9763   -0.2860    1.5143 C   0  0  0  0  0  0  0  0  0  0  0  0
    3.5726    2.1522    0.0846 C   0  0  0  0  0  0  0  0  0  0  0  0
    7.1755    0.4206    1.3921 C   0  0  0  0  0  0  0  0  0  0  0  0
    2.3732    1.4461    0.2065 C   0  0  0  0  0  0  0  0  0  0  0  0
   -3.1396   -1.1739    2.0230 C   0  0  0  0  0  0  0  0  0  0  0  0
   -1.8322   -0.7808    1.7372 C   0  0  0  0  0  0  0  0  0  0  0  0
   -5.4304   -1.9057    1.3136 C   0  0  0  0  0  0  0  0  0  0  0  0
   -6.0027   -2.6654    0.1250 C   0  0  0  0  0  0  0  0  0  0  0  0
    5.9864    2.2823    0.3924 C   0  0  0  0  0  0  0  0  0  0  0  0
    3.5636   -0.4192    1.1977 C   0  0  0  0  0  0  0  0  0  0  0  0
   -2.3287   -0.8576   -0.6300 C   0  0  0  0  0  0  0  0  0  0  0  0
   -4.7521   -0.1524   -2.4123 C   0  0  0  0  0  0  0  0  0  0  0  0
   -4.0496   -1.4206    0.9858 C   0  0  0  0  0  0  0  0  0  0  0  0
    4.7777    1.5792    0.5131 C   0  0  0  0  0  0  0  0  0  0  0  0
    4.7723    0.2839    1.0778 C   0  0  0  0  0  0  0  0  0  0  0  0
    7.1942    1.7074    0.8284 C   0  0  0  0  0  0  0  0  0  0  0  0
    2.3559    0.1511    0.7551 C   0  0  0  0  0  0  0  0  0  0  0  0
   -1.4063   -0.6523    0.4060 C   0  0  0  0  0  0  0  0  0  0  0  0
   -3.6668   -1.2012   -0.3555 C   0  0  0  0  0  0  0  0  0  0  0  0
   -4.6563   -1.4181   -1.5069 C   0  0  1  0  0  0  0  0  0  0  0  0
    8.4745    2.4490    0.7076 C   0  0  0  0  0  0  0  0  0  0  0  0
    1.0837   -0.6003    0.8890 C   0  0  0  0  0  0  0  0  0  0  0  0
    9.4658    2.3447    1.7329 N   0  0  0  0  0  0  0  0  0  0  0  0
    8.7196    3.1920   -0.3268 N   0  0  0  0  0  0  0  0  0  0  0  0
   -6.0153   -1.7872   -1.0451 N   0  0  0  0  0  0  0  0  0  0  0  0
   -0.0594   -0.2626    0.0850 N   0  0  0  0  0  0  0  0  0  0  0  0
    1.0204   -1.5759    1.6865 O   0  0  0  0  0  0  0  0  0  0  0  0
  1 14  1  0
  2 14  1  0
  3  5  2  0
  3 17  1  0
  4  6  1  0
  4 16  2  0
  5 18  1  0
  6 19  2  0
  7  8  2  0
  7 15  1  0
  8 20  1  0
  9 10  1  0
  9 15  1  0
 10 27  1  0
 11 16  1  0
 11 18  2  0
 12 17  2  0
 12 19  1  0
 13 20  2  0
 13 21  1  0
 22 14  1  1
 15 21  2  0
 16 17  1  0
 18 23  1  0
 19 24  1  0
 20 28  1  0
 21 22  1  0
 22 27  1  0
 23 25  1  0
 23 26  2  3
 24 28  1  0
 24 29  2  0
M  END
$$$$
