1OWE_675_A_1001_
     RDKit          3D

 22 24  0  0  0  0  0  0  0  0999 V2000
   16.9082   19.5446   33.7375 N   0  0  0  0  0  0  0  0  0  0  0  0
   18.2154   19.8511   33.9613 C   0  0  0  0  0  0  0  0  0  0  0  0
   18.6578   21.0487   34.4546 N   0  0  0  0  0  0  0  0  0  0  0  0
   19.1839   18.7715   33.5946 C   0  0  0  0  0  0  0  0  0  0  0  0
   18.9229   17.7244   32.6363 C   0  0  0  0  0  0  0  0  0  0  0  0
   19.7779   16.6372   32.3032 C   0  0  0  0  0  0  0  0  0  0  0  0
   21.0347   16.5966   32.9532 C   0  0  0  0  0  0  0  0  0  0  0  0
   21.9810   15.6322   32.6290 C   0  0  0  0  0  0  0  0  0  0  0  0
   23.3131   15.6032   33.1779 C   0  0  0  0  0  0  0  0  0  0  0  0
   23.5278   16.7313   34.1014 C   0  0  0  0  0  0  0  0  0  0  0  0
   22.6412   17.7267   34.4543 C   0  0  0  0  0  0  0  0  0  0  0  0
   21.4041   17.6443   33.8859 C   0  0  0  0  0  0  0  0  0  0  0  0
   20.5026   18.6416   34.1536 C   0  0  0  0  0  0  0  0  0  0  0  0
   24.3371   14.6145   32.8707 C   0  0  0  0  0  0  0  0  0  0  0  0
   25.1624   14.3717   33.7436 O   0  0  0  0  0  0  0  0  0  0  0  0
   24.4075   14.2218   31.5582 N   0  0  0  0  0  0  0  0  0  0  0  0
   25.3858   13.3670   31.0972 C   0  0  0  0  0  0  0  0  0  0  0  0
   25.8519   13.7291   29.8293 C   0  0  0  0  0  0  0  0  0  0  0  0
   26.7857   12.9191   29.1826 C   0  0  0  0  0  0  0  0  0  0  0  0
   27.2895   11.7779   29.8812 C   0  0  0  0  0  0  0  0  0  0  0  0
   26.9072   11.4555   31.1811 C   0  0  0  0  0  0  0  0  0  0  0  0
   25.9447   12.2666   31.8034 C   0  0  0  0  0  0  0  0  0  0  0  0
  1  2  2  0
  2  3  1  0
  2  4  1  0
  4  5  2  0
  5  6  1  0
  6  7  2  0
  7  8  1  0
  8  9  2  0
  9 10  1  0
 10 11  2  0
  7 12  1  0
 11 12  1  0
  4 13  1  0
 12 13  2  0
  9 14  1  0
 14 15  2  0
 14 16  1  0
 16 17  1  0
 17 18  2  0
 18 19  1  0
 19 20  2  0
 20 21  1  0
 17 22  1  0
 21 22  2  0
M  END
$$$$
