
     RDKit          3D

 25 26  0  0  0  0  0  0  0  0999 V2000
    6.0403    2.0782    0.0320 C   0  0  0  0  0  0  0  0  0  0  0  0
    4.7974    2.6501   -0.2535 C   0  0  0  0  0  0  0  0  0  0  0  0
    6.1118    0.7764    0.5356 C   0  0  0  0  0  0  0  0  0  0  0  0
   -5.1224   -0.7488    0.6667 C   0  0  0  0  0  0  0  0  0  0  0  0
    3.6238    1.9226   -0.0328 C   0  0  0  0  0  0  0  0  0  0  0  0
    4.9406    0.0454    0.7578 C   0  0  0  0  0  0  0  0  0  0  0  0
   -4.0150   -1.5286    0.3287 C   0  0  0  0  0  0  0  0  0  0  0  0
   -5.2419    0.5534    0.1755 C   0  0  0  0  0  0  0  0  0  0  0  0
   -3.1371    0.2999   -0.9997 C   0  0  0  0  0  0  0  0  0  0  0  0
   -1.8011   -1.8399   -0.8551 C   0  0  0  0  0  0  0  0  0  0  0  0
    2.4283   -0.1771    0.6903 C   0  0  0  0  0  0  0  0  0  0  0  0
    3.6871    0.6177    0.4841 C   0  0  0  0  0  0  0  0  0  0  0  0
   -3.0159   -1.0112   -0.5096 C   0  0  0  0  0  0  0  0  0  0  0  0
   -4.2493    1.0917   -0.6627 C   0  0  0  0  0  0  0  0  0  0  0  0
   -0.5482   -1.4041   -0.0576 C   0  0  1  0  0  0  0  0  0  0  0  0
   -4.3681    2.4721   -1.1821 C   0  0  0  0  0  0  0  0  0  0  0  0
   -0.7357   -1.6961    1.5086 B   0  0  0  0  0  0  0  0  0  0  0  0
    0.6549   -2.1272   -0.5157 N   0  0  0  0  0  0  0  0  0  0  0  0
   -5.3646    3.1839   -0.8821 O   0  0  0  0  0  0  0  0  0  0  0  0
   -3.3785    2.9991   -2.0083 O   0  0  0  0  0  0  0  0  0  0  0  0
   -0.8197   -0.5876    2.4564 O   0  0  0  0  0  0  0  0  0  0  0  0
   -0.8413   -3.0713    1.9916 O   0  0  0  0  0  0  0  0  0  0  0  0
    3.1641   -1.8416   -1.2861 O   0  0  0  0  0  0  0  0  0  0  0  0
    1.6029   -0.0493   -1.8716 O   0  0  0  0  0  0  0  0  0  0  0  0
    1.9843   -1.0421   -0.8086 S   0  0  0  0  0  6  0  0  0  0  0  0
  1  2  2  0
  1  3  1  0
  2  5  1  0
  3  6  2  0
  4  7  2  0
  4  8  1  0
  5 12  2  0
  6 12  1  0
  7 13  1  0
  8 14  2  0
  9 13  2  0
  9 14  1  0
 10 13  1  0
 15 10  1  6
 11 12  1  0
 11 25  1  0
 14 16  1  0
 15 17  1  0
 15 18  1  0
 16 19  2  0
 16 20  1  0
 17 21  1  0
 17 22  1  0
 18 25  1  0
 23 25  2  0
 24 25  2  0
M  END
$$$$
