
     RDKit          3D

 15 15  0  0  0  0  0  0  0  0999 V2000
   -4.5407   -0.3501   -0.6013 C   0  0  0  0  0  0  0  0  0  0  0  0
   -3.6227   -0.7701   -1.5678 C   0  0  0  0  0  0  0  0  0  0  0  0
   -4.1049    0.3869    0.5034 C   0  0  0  0  0  0  0  0  0  0  0  0
   -2.2679   -0.4510   -1.4333 C   0  0  0  0  0  0  0  0  0  0  0  0
   -2.7510    0.7082    0.6418 C   0  0  0  0  0  0  0  0  0  0  0  0
   -0.3633    0.6144   -0.1685 C   0  0  0  0  0  0  0  0  0  0  0  0
    2.8453    0.0040   -0.1615 C   0  0  0  0  0  0  0  0  0  0  0  0
   -1.8239    0.2995   -0.3317 C   0  0  0  0  0  0  0  0  0  0  0  0
    4.3936    0.1737    0.1676 B   0  0  0  0  0  0  0  0  0  0  0  0
    2.1058   -0.2648    1.0725 N   0  0  0  0  0  0  0  0  0  0  0  0
    5.1371   -0.9281    0.7737 O   0  0  0  0  0  0  0  0  0  0  0  0
    5.0737    1.4303   -0.1362 O   0  0  0  0  0  0  0  0  0  0  0  0
    0.4573   -1.9522   -0.1445 O   0  0  0  0  0  0  0  0  0  0  0  0
   -0.2597   -0.9881    1.9868 O   0  0  0  0  0  0  0  0  0  0  0  0
    0.4668   -0.7090    0.7010 S   0  0  0  0  0  6  0  0  0  0  0  0
  1  2  2  0
  1  3  1  0
  2  4  1  0
  3  5  2  0
  4  8  2  0
  5  8  1  0
  6  8  1  0
  6 15  1  0
  7  9  1  0
  7 10  1  0
  9 11  1  0
  9 12  1  0
 10 15  1  0
 13 15  2  0
 14 15  2  0
M  END
$$$$
