3O86_BSF_A_1_AA
     RDKit          3D

 15 15  0  0  0  0  0  0  0  0999 V2000
   80.8764    8.3824   30.3763 O   0  0  0  0  0  0  0  0  0  0  0  0
   78.9218    8.1440   31.8924 O   0  0  0  0  0  0  0  0  0  0  0  0
   78.2198    4.1234   28.5806 O   0  0  0  0  0  0  0  0  0  0  0  0
   77.1891    5.8424   27.2478 O   0  0  0  0  0  0  0  0  0  0  0  0
   82.7544    6.7452   35.0812 C   0  0  0  0  0  0  0  0  0  0  0  0
   81.4030    6.4576   35.1692 C   0  0  0  0  0  0  0  0  0  0  0  0
   83.3923    6.7560   33.8392 C   0  0  0  0  0  0  0  0  0  0  0  0
   80.6846    6.2058   34.0142 C   0  0  0  0  0  0  0  0  0  0  0  0
   82.6708    6.5022   32.6785 C   0  0  0  0  0  0  0  0  0  0  0  0
   77.6611    6.3362   29.8318 C   0  0  0  0  0  0  0  0  0  0  0  0
   80.5104    5.9585   31.5378 C   0  0  0  0  0  0  0  0  0  0  0  0
   78.9677    6.9119   29.5172 N   0  0  0  0  0  0  0  0  0  0  0  0
   81.3151    6.2289   32.7839 C   0  0  0  0  0  0  0  0  0  0  0  0
   79.7644    7.4731   30.8439 S   0  0  0  0  0  0  0  0  0  0  0  0
   77.2284    5.3027   28.6631 B   0  0  0  0  0  0  0  0  0  0  0  0
  5  6  2  0
  5  7  1  0
  6  8  1  0
  7  9  2  0
 10 12  1  0
  8 13  2  0
  9 13  1  0
 11 13  1  0
  1 14  2  0
  2 14  2  0
 11 14  1  0
 12 14  1  0
  3 15  1  0
  4 15  1  0
 10 15  1  0
M  END
$$$$
