4EH2_0OK_A_402_
     RDKit          3D

 17 19  0  0  0  0  0  0  0  0999 V2000
   -3.0487    1.2770   17.5293 C   0  0  0  0  0  0  0  0  0  0  0  0
   -3.4153    1.7489   16.2684 C   0  0  0  0  0  0  0  0  0  0  0  0
   -4.7518    1.7197   15.8639 C   0  0  0  0  0  0  0  0  0  0  0  0
   -5.7309    1.2167   16.7199 C   0  0  0  0  0  0  0  0  0  0  0  0
   -5.3693    0.7449   17.9821 C   0  0  0  0  0  0  0  0  0  0  0  0
   -4.0287    0.7701   18.3883 C   0  0  0  0  0  0  0  0  0  0  0  0
   -3.7133    0.2993   19.6850 N   0  0  0  0  0  0  0  0  0  0  0  0
   -3.5293   -1.0764   19.9599 C   0  0  0  0  0  0  0  0  0  0  0  0
   -3.2534   -1.4828   21.1991 N   0  0  0  0  0  0  0  0  0  0  0  0
   -3.1382   -0.6204   22.2367 C   0  0  0  0  0  0  0  0  0  0  0  0
   -2.8420   -1.1016   23.5164 C   0  0  0  0  0  0  0  0  0  0  0  0
   -2.7131   -0.2197   24.5924 C   0  0  0  0  0  0  0  0  0  0  0  0
   -2.8836    1.1502   24.4019 C   0  0  0  0  0  0  0  0  0  0  0  0
   -3.1714    1.6381   23.1258 C   0  0  0  0  0  0  0  0  0  0  0  0
   -3.3027    0.7574   22.0399 C   0  0  0  0  0  0  0  0  0  0  0  0
   -3.5948    1.2275   20.7499 C   0  0  0  0  0  0  0  0  0  0  0  0
   -3.7412    2.4339   20.5300 O   0  0  0  0  0  0  0  0  0  0  0  0
  1  2  2  0
  2  3  1  0
  3  4  2  0
  4  5  1  0
  1  6  1  0
  5  6  2  0
  6  7  1  0
  7  8  1  0
  8  9  2  0
  9 10  1  0
 10 11  2  0
 11 12  1  0
 12 13  2  0
 13 14  1  0
 10 15  1  0
 14 15  2  0
  7 16  1  0
 15 16  1  0
 16 17  2  0
M  END
$$$$
