
     RDKit          3D

 17 19  0  0  0  0  0  0  0  0999 V2000
   -4.5929    0.0274    0.1461 C   0  0  0  0  0  0  0  0  0  0  0  0
   -3.8231    1.1910    0.2254 C   0  0  0  0  0  0  0  0  0  0  0  0
   -3.9779   -1.2022   -0.1049 C   0  0  0  0  0  0  0  0  0  0  0  0
    4.1705    0.6006    1.0681 C   0  0  0  0  0  0  0  0  0  0  0  0
    4.6249    0.0452   -0.1314 C   0  0  0  0  0  0  0  0  0  0  0  0
   -2.4365    1.1270    0.0558 C   0  0  0  0  0  0  0  0  0  0  0  0
   -2.5917   -1.2706   -0.2754 C   0  0  0  0  0  0  0  0  0  0  0  0
    2.7990    0.6920    1.3263 C   0  0  0  0  0  0  0  0  0  0  0  0
    3.7101   -0.4222   -1.0792 C   0  0  0  0  0  0  0  0  0  0  0  0
    0.1113   -0.7170   -1.5307 C   0  0  0  0  0  0  0  0  0  0  0  0
   -1.8084   -0.1063   -0.1914 C   0  0  0  0  0  0  0  0  0  0  0  0
    1.8700    0.2251    0.3772 C   0  0  0  0  0  0  0  0  0  0  0  0
    2.3356   -0.3346   -0.8292 C   0  0  0  0  0  0  0  0  0  0  0  0
    0.4809    0.2907    0.5864 C   0  0  0  0  0  0  0  0  0  0  0  0
    1.4487   -0.7902   -1.7472 N   0  0  0  0  0  0  0  0  0  0  0  0
   -0.3798   -0.1752   -0.3758 N   0  0  0  0  0  0  0  0  0  0  0  0
    0.0297    0.7650    1.6671 O   0  0  0  0  0  0  0  0  0  0  0  0
  1  2  2  0
  1  3  1  0
  2  6  1  0
  3  7  2  0
  4  5  2  0
  4  8  1  0
  5  9  1  0
  6 11  2  0
  7 11  1  0
  8 12  2  0
  9 13  2  0
 10 15  2  0
 10 16  1  0
 11 16  1  0
 12 13  1  0
 12 14  1  0
 13 15  1  0
 14 16  1  0
 14 17  2  0
M  END
$$$$
