
     RDKit          3D

 31 35  0  0  0  0  0  0  0  0999 V2000
   -2.6579   -3.2771    0.0411 C   0  0  0  0  0  0  0  0  0  0  0  0
    8.2190    0.5063   -1.7661 C   0  0  0  0  0  0  0  0  0  0  0  0
   -4.7342   -1.8587   -0.0834 C   0  0  0  0  0  0  0  0  0  0  0  0
   -5.4321   -0.6764    0.1724 C   0  0  0  0  0  0  0  0  0  0  0  0
   -7.1935    2.8975   -1.9592 C   0  0  0  0  0  0  0  0  0  0  0  0
   -7.6105    1.4706   -1.6431 C   0  0  0  0  0  0  0  0  0  0  0  0
    3.5623   -0.9719    2.0991 C   0  0  0  0  0  0  0  0  0  0  0  0
    2.4788   -1.4365    2.8486 C   0  0  0  0  0  0  0  0  0  0  0  0
    5.9253   -0.2643   -1.9318 C   0  0  0  0  0  0  0  0  0  0  0  0
    6.5469    1.4206   -0.2778 C   0  0  0  0  0  0  0  0  0  0  0  0
    4.4937   -0.0701   -1.3816 C   0  0  0  0  0  0  0  0  0  0  0  0
    5.4617    1.0045    0.7126 C   0  0  0  0  0  0  0  0  0  0  0  0
   -3.4722    0.2526    1.2457 C   0  0  0  0  0  0  0  0  0  0  0  0
    2.0452   -0.2175    0.3637 C   0  0  0  0  0  0  0  0  0  0  0  0
   -1.1467   -1.6307    2.6407 C   0  0  0  0  0  0  0  0  0  0  0  0
   -3.3940   -1.9940    0.3113 C   0  0  0  0  0  0  0  0  0  0  0  0
   -4.7996    0.3959    0.8198 C   0  0  0  0  0  0  0  0  0  0  0  0
   -6.2524    1.9816   -1.1987 C   0  0  0  0  0  0  0  0  0  0  0  0
    3.3578   -0.3601    0.8505 C   0  0  0  0  0  0  0  0  0  0  0  0
    0.9507   -0.6837    1.1147 C   0  0  0  0  0  0  0  0  0  0  0  0
    1.1762   -1.2964    2.3622 C   0  0  0  0  0  0  0  0  0  0  0  0
   -2.7645   -0.9311    0.9931 C   0  0  0  0  0  0  0  0  0  0  0  0
   -5.5305    1.6461    1.1248 C   0  0  0  0  0  0  0  0  0  0  0  0
   -0.3766   -0.5637    0.6657 C   0  0  0  0  0  0  0  0  0  0  0  0
    0.1273   -1.7523    3.0910 N   0  0  0  0  0  0  0  0  0  0  0  0
   -6.1786    2.3227    0.2194 N   0  0  0  0  0  0  0  0  0  0  0  0
    6.9831    0.2282   -1.0195 N   0  0  0  0  0  0  0  0  0  0  0  0
    4.4808    0.1118    0.0776 N   0  0  0  0  0  0  0  0  0  0  0  0
   -1.4020   -1.0439    1.4357 N   0  0  0  0  0  0  0  0  0  0  0  0
   -5.4968    2.1273    2.4304 O   0  0  0  0  0  0  0  0  0  0  0  0
   -0.6226   -0.0189   -0.4476 O   0  0  0  0  0  0  0  0  0  0  0  0
  1 16  1  0
  2 27  1  0
  3  4  2  0
  3 16  1  0
  4 17  1  0
  5  6  1  0
  5 18  1  0
  6 18  1  0
  7  8  2  0
  7 19  1  0
  8 21  1  0
  9 11  1  0
  9 27  1  0
 10 12  1  0
 10 27  1  0
 11 28  1  0
 12 28  1  0
 13 17  2  0
 13 22  1  0
 14 19  2  0
 14 20  1  0
 15 25  2  0
 15 29  1  0
 16 22  2  0
 17 23  1  0
 18 26  1  0
 19 28  1  0
 20 21  2  0
 20 24  1  0
 21 25  1  0
 22 29  1  0
 23 26  2  3
 23 30  1  0
 24 29  1  0
 24 31  2  0
M  END
$$$$
