4AA5_NQB_A_1353_
     RDKit          3D

 31 35  0  0  0  0  0  0  0  0999 V2000
   -1.8880    0.9780   26.3390 C   0  0  0  0  0  0  0  0  0  0  0  0
   -1.0510    1.8380   27.3070 C   0  0  0  0  0  0  0  0  0  0  0  0
   -1.0950    3.8890   28.7120 C   0  0  0  0  0  0  0  0  0  0  0  0
   -2.9130    1.5970   22.7000 C   0  0  0  0  0  0  0  0  0  0  0  0
   -2.7100    0.9730   23.9540 C   0  0  0  0  0  0  0  0  0  0  0  0
   -2.7410   -0.4370   23.9670 C   0  0  0  0  0  0  0  0  0  0  0  0
   -2.9340   -1.2150   22.8170 C   0  0  0  0  0  0  0  0  0  0  0  0
   -2.4940    1.3950   17.0060 C   0  0  0  0  0  0  0  0  0  0  0  0
   -2.7190    1.9480   15.7260 C   0  0  0  0  0  0  0  0  0  0  0  0
   -4.0530    2.0670   15.2410 C   0  0  0  0  0  0  0  0  0  0  0  0
   -1.4930    2.2910   14.9380 C   0  0  0  0  0  0  0  0  0  0  0  0
   -0.4810    3.5000   12.9720 C   0  0  0  0  0  0  0  0  0  0  0  0
   -0.6000    3.2540   11.4870 C   0  0  0  0  0  0  0  0  0  0  0  0
    0.3790    2.4760   12.3290 C   0  0  0  0  0  0  0  0  0  0  0  0
   -3.3920    0.5290   19.1270 N   0  0  0  0  0  0  0  0  0  0  0  0
   -3.2740    1.4280   20.1820 C   0  0  0  0  0  0  0  0  0  0  0  0
   -1.7190    3.1280   27.6270 N   0  0  0  0  0  0  0  0  0  0  0  0
   -1.8140    3.9390   26.4010 C   0  0  0  0  0  0  0  0  0  0  0  0
   -2.4380    3.2220   25.1550 C   0  0  0  0  0  0  0  0  0  0  0  0
   -5.1120    1.6920   16.0560 C   0  0  0  0  0  0  0  0  0  0  0  0
   -4.9010    1.1660   17.3500 C   0  0  0  0  0  0  0  0  0  0  0  0
   -6.0520    0.7470   18.2100 C   0  0  0  0  0  0  0  0  0  0  0  0
   -0.4790    1.7730   15.3020 O   0  0  0  0  0  0  0  0  0  0  0  0
   -3.5770    1.0110   17.8070 C   0  0  0  0  0  0  0  0  0  0  0  0
   -3.0980    0.8210   21.5290 C   0  0  0  0  0  0  0  0  0  0  0  0
   -3.1110   -0.5930   21.5900 C   0  0  0  0  0  0  0  0  0  0  0  0
   -3.2850   -1.4150   20.4920 N   0  0  0  0  0  0  0  0  0  0  0  0
   -3.4000   -0.8370   19.3480 C   0  0  0  0  0  0  0  0  0  0  0  0
   -2.4970    1.7220   25.1670 N   0  0  0  0  0  0  0  0  0  0  0  0
   -3.2420    2.6220   20.0660 O   0  0  0  0  0  0  0  0  0  0  0  0
   -1.5610    3.1110   13.8350 N   0  0  0  0  0  0  0  0  0  0  0  0
  1  2  1  0
  4  5  2  0
  5  6  1  0
  6  7  2  0
  8  9  2  0
  9 10  1  0
  9 11  1  0
 12 13  1  0
 12 14  1  0
 13 14  1  0
 15 16  1  0
  2 17  1  0
  3 17  1  0
 17 18  1  0
 18 19  1  0
 10 20  2  0
 20 21  1  0
 21 22  1  0
 11 23  2  0
  8 24  1  0
 15 24  1  0
 21 24  2  0
  4 25  1  0
 16 25  1  0
  7 26  1  0
 25 26  2  0
 26 27  1  0
 15 28  1  0
 27 28  2  0
  1 29  1  0
  5 29  1  0
 19 29  1  0
 16 30  2  0
 11 31  1  0
 12 31  1  0
M  END
$$$$
