
     RDKit          3D

 19 19  0  0  0  0  0  0  0  0999 V2000
    6.3474    1.3684    0.7896 C   0  0  0  0  0  0  0  0  0  0  0  0
    5.2041    0.8056   -0.0501 C   0  0  0  0  0  0  0  0  0  0  0  0
    4.8355   -0.6156    0.4001 C   0  0  0  0  0  0  0  0  0  0  0  0
    3.7793   -1.2678   -0.5059 C   0  0  0  0  0  0  0  0  0  0  0  0
    2.3878   -0.6395   -0.3395 C   0  0  0  0  0  0  0  0  0  0  0  0
   -2.7372   -0.0597    1.4492 C   0  0  0  0  0  0  0  0  0  0  0  0
   -2.9112   -0.1258   -0.9661 C   0  0  0  0  0  0  0  0  0  0  0  0
   -4.0232    0.4827    1.5265 C   0  0  0  0  0  0  0  0  0  0  0  0
   -4.1977    0.4158   -0.8855 C   0  0  0  0  0  0  0  0  0  0  0  0
    1.3400   -1.4031   -1.1558 C   0  0  0  0  0  0  0  0  0  0  0  0
   -2.1612   -0.3594    0.2014 C   0  0  0  0  0  0  0  0  0  0  0  0
   -4.7552    0.7311    0.3593 C   0  0  0  0  0  0  0  0  0  0  0  0
   -0.7976   -0.9385    0.1365 C   0  0  0  0  0  0  0  0  0  0  0  0
   -7.5292    0.1071    0.5168 N   0  0  0  0  0  0  0  0  0  0  0  0
    0.0297   -0.7681   -1.0272 N   0  0  0  0  0  0  0  0  0  0  0  0
   -0.3537   -1.5807    1.1278 O   0  0  0  0  0  0  0  0  0  0  0  0
   -6.6501    2.2578   -0.7478 O   0  0  0  0  0  0  0  0  0  0  0  0
   -6.5129    2.2440    1.6914 O   0  0  0  0  0  0  0  0  0  0  0  0
   -6.3815    1.3981    0.4559 S   0  0  0  0  0  6  0  0  0  0  0  0
  1  2  1  0
  2  3  1  0
  3  4  1  0
  4  5  1  0
  5 10  1  0
  6  8  2  0
  6 11  1  0
  7  9  1  0
  7 11  2  0
  8 12  1  0
  9 12  2  0
 10 15  1  0
 11 13  1  0
 12 19  1  0
 13 15  1  0
 13 16  2  0
 14 19  1  0
 17 19  2  0
 18 19  2  0
M  END
$$$$
