
     RDKit          3D

 30 30  0  0  0  0  0  0  0  0999 V2000
    3.0006    0.5831    0.2591 C   0  0  0  0  0  0  0  0  0  0  0  0
    3.1130   -1.2393   -1.3331 C   0  0  0  0  0  0  0  0  0  0  0  0
    4.3621    0.4237    0.5336 C   0  0  0  0  0  0  0  0  0  0  0  0
    4.4741   -1.3963   -1.0564 C   0  0  0  0  0  0  0  0  0  0  0  0
   -1.3924    0.7653   -0.3375 C   0  0  0  0  0  0  0  0  0  0  0  0
    2.3572   -0.2549   -0.6706 C   0  0  0  0  0  0  0  0  0  0  0  0
    5.1022   -0.5718   -0.1152 C   0  0  0  0  0  0  0  0  0  0  0  0
    0.9148   -0.0960   -0.9779 C   0  0  0  0  0  0  0  0  0  0  0  0
   -2.2622   -0.4065    0.1601 C   0  0  0  0  0  0  0  0  0  0  0  0
   -3.7712   -0.2549   -0.1847 C   0  0  0  0  0  0  0  0  0  0  0  0
   -4.5557    0.6714    0.7918 C   0  0  0  0  0  0  0  0  0  0  0  0
   -5.9729    1.0759    0.3016 C   0  0  0  0  0  0  0  0  0  0  0  0
   -6.9287   -0.0976    0.0152 C   0  0  0  0  0  0  0  0  0  0  0  0
   -2.1002   -0.5461    1.5289 F   0  0  0  0  0  0  0  0  0  0  0  0
   -1.7964   -1.5658   -0.4404 F   0  0  0  0  0  0  0  0  0  0  0  0
   -3.8989    0.2035   -1.4866 F   0  0  0  0  0  0  0  0  0  0  0  0
   -4.3322   -1.5208   -0.1237 F   0  0  0  0  0  0  0  0  0  0  0  0
   -4.6709    0.0389    2.0198 F   0  0  0  0  0  0  0  0  0  0  0  0
   -3.8531    1.8446    0.9962 F   0  0  0  0  0  0  0  0  0  0  0  0
   -6.5488    1.8642    1.2853 F   0  0  0  0  0  0  0  0  0  0  0  0
   -5.8636    1.8516   -0.8413 F   0  0  0  0  0  0  0  0  0  0  0  0
   -6.5808   -0.7392   -1.1599 F   0  0  0  0  0  0  0  0  0  0  0  0
   -6.9198   -1.0080    1.0571 F   0  0  0  0  0  0  0  0  0  0  0  0
   -8.2162    0.3883   -0.1296 F   0  0  0  0  0  0  0  0  0  0  0  0
    7.7300    0.3030   -0.7974 N   0  0  0  0  0  0  0  0  0  0  0  0
    0.0173    0.5164   -0.0359 N   0  0  0  0  0  0  0  0  0  0  0  0
    0.4684   -0.5206   -2.0790 O   0  0  0  0  0  0  0  0  0  0  0  0
    7.0932   -0.4236    1.6621 O   0  0  0  0  0  0  0  0  0  0  0  0
    7.2410   -2.1773   -0.0313 O   0  0  0  0  0  0  0  0  0  0  0  0
    6.8207   -0.7565    0.2219 S   0  0  0  0  0  6  0  0  0  0  0  0
  1  3  2  0
  1  6  1  0
  2  4  1  0
  2  6  2  0
  3  7  1  0
  4  7  2  0
  5  9  1  0
  5 26  1  0
  6  8  1  0
  7 30  1  0
  8 26  1  0
  8 27  2  0
  9 10  1  0
  9 14  1  0
  9 15  1  0
 10 11  1  0
 10 16  1  0
 10 17  1  0
 11 12  1  0
 11 18  1  0
 11 19  1  0
 12 13  1  0
 12 20  1  0
 12 21  1  0
 13 22  1  0
 13 23  1  0
 13 24  1  0
 25 30  1  0
 28 30  2  0
 29 30  2  0
M  END
$$$$
