
     RDKit          3D

 24 26  0  0  0  0  0  0  0  0999 V2000
   -4.0437   -3.1775   -0.1932 C   0  0  0  0  0  0  0  0  0  0  0  0
    0.7934    2.3173   -0.5191 C   0  0  0  0  0  0  0  0  0  0  0  0
    0.0323    3.0177   -1.4560 C   0  0  0  0  0  0  0  0  0  0  0  0
   -2.7513   -2.7131   -0.4529 C   0  0  0  0  0  0  0  0  0  0  0  0
   -4.6291   -1.0273    0.7494 C   0  0  0  0  0  0  0  0  0  0  0  0
    3.7489    0.7637   -0.0941 C   0  0  0  0  0  0  0  0  0  0  0  0
    3.7825   -0.2402    1.6196 C   0  0  0  0  0  0  0  0  0  0  0  0
   -4.9845   -2.3342    0.4036 C   0  0  0  0  0  0  0  0  0  0  0  0
    4.8790    0.1959    0.7014 C   0  0  0  0  0  0  0  0  0  0  0  0
    0.4454    1.0070   -0.1516 C   0  0  0  0  0  0  0  0  0  0  0  0
   -1.0846    2.4198   -2.0390 C   0  0  0  0  0  0  0  0  0  0  0  0
   -3.3373   -0.5564    0.4916 C   0  0  0  0  0  0  0  0  0  0  0  0
   -2.3901   -1.3955   -0.1316 C   0  0  0  0  0  0  0  0  0  0  0  0
   -1.4503    1.1194   -1.6820 C   0  0  0  0  0  0  0  0  0  0  0  0
   -0.7006    0.4066   -0.7253 C   0  0  0  0  0  0  0  0  0  0  0  0
    1.2505    0.3026    0.8689 C   0  0  0  0  0  0  0  0  0  0  0  0
   -1.8112    3.1015   -2.9590 F   0  0  0  0  0  0  0  0  0  0  0  0
   -3.0074    0.6997    0.8840 F   0  0  0  0  0  0  0  0  0  0  0  0
   -2.5151    0.5416   -2.2937 F   0  0  0  0  0  0  0  0  0  0  0  0
   -6.9333   -3.0376    0.7974 I   0  0  0  0  0  0  0  0  0  0  0  0
   -1.0492   -0.9509   -0.4016 N   0  0  0  0  0  0  0  0  0  0  0  0
    2.6783    0.3246    0.8226 N   0  0  0  0  0  0  0  0  0  0  0  0
    5.6836    1.1969    1.2617 O   0  0  0  0  0  0  0  0  0  0  0  0
    0.6757   -0.3396    1.7880 O   0  0  0  0  0  0  0  0  0  0  0  0
  1  4  2  0
  1  8  1  0
  2  3  2  0
  2 10  1  0
  3 11  1  0
  4 13  1  0
  5  8  2  0
  5 12  1  0
  6  9  1  0
  6 22  1  0
  7  9  1  0
  7 22  1  0
  8 20  1  0
  9 23  1  0
 10 15  2  0
 10 16  1  0
 11 14  2  0
 11 17  1  0
 12 13  2  0
 12 18  1  0
 13 21  1  0
 14 15  1  0
 14 19  1  0
 15 21  1  0
 16 22  1  0
 16 24  2  0
M  END
$$$$
