
     RDKit          3D

 32 34  0  0  0  0  0  0  0  0999 V2000
   -3.2450   -3.8600    0.6081 C   0  0  0  0  0  0  0  0  0  0  0  0
   -3.7831   -3.5129    2.0056 C   0  0  0  0  0  0  0  0  0  0  0  0
   -0.4939    3.5217   -2.9716 C   0  0  0  0  0  0  0  0  0  0  0  0
   -0.0322    3.0515   -1.7389 C   0  0  0  0  0  0  0  0  0  0  0  0
    1.5885   -3.0135   -1.8891 C   0  0  0  0  0  0  0  0  0  0  0  0
   -1.7670   -3.4599    0.4672 C   0  0  0  0  0  0  0  0  0  0  0  0
    2.7709   -2.0946   -1.6253 C   0  0  0  0  0  0  0  0  0  0  0  0
    1.0371   -0.1299    1.6647 C   0  0  0  0  0  0  0  0  0  0  0  0
    0.9251    5.4700   -2.7676 C   0  0  0  0  0  0  0  0  0  0  0  0
   -0.8704   -1.2854    2.8406 C   0  0  0  0  0  0  0  0  0  0  0  0
   -0.2512   -0.0637    2.2153 C   0  0  0  0  0  0  0  0  0  0  0  0
   -0.0164    4.7290   -3.4871 C   0  0  0  0  0  0  0  0  0  0  0  0
    1.6053    0.9850    1.0264 C   0  0  0  0  0  0  0  0  0  0  0  0
    1.3907    5.0062   -1.5331 C   0  0  0  0  0  0  0  0  0  0  0  0
    0.9094    3.7970   -0.9994 C   0  0  0  0  0  0  0  0  0  0  0  0
   -3.1890   -2.2347    2.5102 C   0  0  0  0  0  0  0  0  0  0  0  0
   -0.9771    1.1339    2.1293 C   0  0  0  0  0  0  0  0  0  0  0  0
   -0.4184    2.2507    1.5025 C   0  0  0  0  0  0  0  0  0  0  0  0
    0.8686    2.1846    0.9472 C   0  0  0  0  0  0  0  0  0  0  0  0
    2.9619    0.8844    0.4396 C   0  0  0  0  0  0  0  0  0  0  0  0
    2.3064    5.7427   -0.8536 F   0  0  0  0  0  0  0  0  0  0  0  0
   -2.2295    1.2170    2.6476 F   0  0  0  0  0  0  0  0  0  0  0  0
   -1.1334    3.3999    1.4259 F   0  0  0  0  0  0  0  0  0  0  0  0
   -0.7172    5.4322   -5.3485 I   0  0  0  0  0  0  0  0  0  0  0  0
    1.4065    3.3278    0.2682 N   0  0  0  0  0  0  0  0  0  0  0  0
    3.2813   -0.0756   -0.3752 N   0  0  0  0  0  0  0  0  0  0  0  0
   -1.9238   -1.8137    1.9723 N   0  0  0  0  0  0  0  0  0  0  0  0
    0.5665   -2.3036   -2.5303 O   0  0  0  0  0  0  0  0  0  0  0  0
   -3.7268   -1.6135    3.4667 O   0  0  0  0  0  0  0  0  0  0  0  0
    3.9162    1.8433    0.7667 O   0  0  0  0  0  0  0  0  0  0  0  0
    2.3733   -1.0326   -0.7727 O   0  0  0  0  0  0  0  0  0  0  0  0
   -1.6465   -2.0667    0.6597 O   0  0  0  0  0  0  0  0  0  0  0  0
  1  2  1  0
  1  6  1  0
  2 16  1  0
  3  4  2  0
  3 12  1  0
  4 15  1  0
  5  7  1  0
  5 28  1  0
  6 32  1  0
  7 31  1  0
  8 11  2  0
  8 13  1  0
  9 12  2  0
  9 14  1  0
 10 11  1  0
 10 27  1  0
 11 17  1  0
 12 24  1  0
 13 19  2  0
 13 20  1  0
 14 15  2  0
 14 21  1  0
 15 25  1  0
 16 27  1  0
 16 29  2  0
 17 18  2  0
 17 22  1  0
 18 19  1  0
 18 23  1  0
 19 25  1  0
 20 26  2  3
 20 30  1  0
 26 31  1  0
 27 32  1  0
M  END
$$$$
