
     RDKit          3D

 33 35  0  0  0  0  0  0  0  0999 V2000
   -2.7052    3.4045   -0.0962 C   0  0  0  0  0  0  0  0  0  0  0  0
   -1.4672    4.0835   -0.6256 C   0  0  0  0  0  0  0  0  0  0  0  0
   -3.3433    2.4644   -0.8111 C   0  0  0  0  0  0  0  0  0  0  0  0
    5.8663   -1.8778    1.5299 C   0  0  0  0  0  0  0  0  0  0  0  0
    5.9909   -0.4921    1.6649 C   0  0  0  0  0  0  0  0  0  0  0  0
    5.1150   -2.4131    0.4799 C   0  0  0  0  0  0  0  0  0  0  0  0
   -0.1859    3.6081    0.0897 C   0  0  0  0  0  0  0  0  0  0  0  0
   -4.4586    1.6382   -0.2294 C   0  0  0  0  0  0  0  0  0  0  0  0
    5.3683    0.3612    0.7480 C   0  0  0  0  0  0  0  0  0  0  0  0
    4.4921   -1.5636   -0.4402 C   0  0  0  0  0  0  0  0  0  0  0  0
   -0.0394    2.0765    0.2056 C   0  0  0  0  0  0  0  0  0  0  0  0
   -3.9511    0.2489    0.1620 C   0  0  0  0  0  0  0  0  0  0  0  0
    0.0634   -1.0372   -0.0132 C   0  0  0  0  0  0  0  0  0  0  0  0
   -2.9838   -4.0784    0.5135 C   0  0  0  0  0  0  0  0  0  0  0  0
    3.9198    0.7373   -1.2855 C   0  0  0  0  0  0  0  0  0  0  0  0
    4.6245   -0.1699   -0.3191 C   0  0  0  0  0  0  0  0  0  0  0  0
    0.1560    1.3600   -1.1524 C   0  0  2  0  0  0  0  0  0  0  0  0
   -0.9966   -2.1088    0.1978 C   0  0  0  0  0  0  0  0  0  0  0  0
   -0.3176   -0.0828   -1.1258 C   0  0  0  0  0  0  0  0  0  0  0  0
   -3.0989   -2.8720    1.2022 C   0  0  0  0  0  0  0  0  0  0  0  0
   -1.9044   -4.3128   -0.3399 C   0  0  0  0  0  0  0  0  0  0  0  0
   -2.1177   -1.8698    1.0382 C   0  0  0  0  0  0  0  0  0  0  0  0
   -0.9136   -3.3360   -0.5053 C   0  0  0  0  0  0  0  0  0  0  0  0
    1.5889    1.4307   -1.6065 C   0  0  0  0  0  0  0  0  0  0  0  0
   -2.2678   -0.5810    1.7491 C   0  0  0  0  0  0  0  0  0  0  0  0
    0.4112   -3.6765   -1.6227 Cl  0  0  0  0  0  0  0  0  0  0  0  0
   -3.0846    0.3457    1.3363 N   0  0  0  0  0  0  0  0  0  0  0  0
    2.5030    0.7784   -0.9478 N   0  0  0  0  0  0  0  0  0  0  0  0
   -0.9328   -0.5103   -2.0924 O   0  0  0  0  0  0  0  0  0  0  0  0
   -4.1971   -2.6996    2.0482 O   0  0  0  0  0  0  0  0  0  0  0  0
   -1.8124   -5.5211   -1.0304 O   0  0  0  0  0  0  0  0  0  0  0  0
    1.9009    2.2029   -2.7294 O   0  0  0  0  0  0  0  0  0  0  0  0
   -1.4992   -0.3555    2.8869 O   0  0  0  0  0  0  0  0  0  0  0  0
  1  2  1  0
  1  3  2  0
  2  7  1  0
  3  8  1  0
  4  5  2  0
  4  6  1  0
  5  9  1  0
  6 10  2  0
  7 11  1  0
  8 12  1  0
  9 16  2  0
 10 16  1  0
 17 11  1  1
 12 27  1  0
 13 18  1  0
 13 19  1  0
 14 20  2  0
 14 21  1  0
 15 16  1  0
 15 28  1  0
 17 19  1  0
 17 24  1  0
 18 22  2  0
 18 23  1  0
 19 29  2  0
 20 22  1  0
 20 30  1  0
 21 23  2  0
 21 31  1  0
 22 25  1  0
 23 26  1  0
 24 28  2  3
 24 32  1  0
 25 27  2  3
 25 33  1  0
M  END
$$$$
