
     RDKit          3D

 14 14  0  0  0  0  0  0  0  0999 V2000
   -3.2786    1.0976   -0.8955 C   0  0  0  0  0  0  0  0  0  0  0  0
    1.1714    0.8841    0.8354 C   0  0  0  0  0  0  0  0  0  0  0  0
    2.0290   -0.9831   -0.4423 C   0  0  0  0  0  0  0  0  0  0  0  0
   -0.1335    0.4240    0.6344 C   0  0  0  0  0  0  0  0  0  0  0  0
    0.7243   -1.4424   -0.6428 C   0  0  0  0  0  0  0  0  0  0  0  0
    2.2662    0.1861    0.2981 C   0  0  0  0  0  0  0  0  0  0  0  0
   -0.3713   -0.7441   -0.1129 C   0  0  0  0  0  0  0  0  0  0  0  0
    3.6484    0.6703    0.5085 C   0  0  0  0  0  0  0  0  0  0  0  0
   -1.6992   -1.2514   -0.3403 N   0  0  0  0  0  0  0  0  0  0  0  0
    4.7266   -0.0297   -0.0271 O   0  0  0  0  0  0  0  0  0  0  0  0
    3.8633    1.7197    1.1737 O   0  0  0  0  0  0  0  0  0  0  0  0
   -4.3356   -1.2753   -0.2809 O   0  0  0  0  0  0  0  0  0  0  0  0
   -3.1956   -0.0955    1.5278 O   0  0  0  0  0  0  0  0  0  0  0  0
   -3.1604   -0.4020    0.0570 S   0  0  0  0  0  6  0  0  0  0  0  0
  1 14  1  0
  2  4  2  0
  2  6  1  0
  3  5  1  0
  3  6  2  0
  4  7  1  0
  5  7  2  0
  6  8  1  0
  7  9  1  0
  8 10  1  0
  8 11  2  0
  9 14  1  0
 12 14  2  0
 13 14  2  0
M  END
$$$$
