1GI9_123_B_246_
     RDKit          3D

 35 37  0  0  0  0  0  0  0  0999 V2000
    8.7430    1.8370   24.6990 C   0  0  0  0  0  0  0  0  0  0  0  0
    9.5440    1.6220   23.5520 C   0  0  0  0  0  0  0  0  0  0  0  0
   10.1750    2.6690   22.8830 C   0  0  0  0  0  0  0  0  0  0  0  0
    9.9800    3.9360   23.3850 C   0  0  0  0  0  0  0  0  0  0  0  0
    9.2320    4.1920   24.4800 C   0  0  0  0  0  0  0  0  0  0  0  0
    8.6020    3.1670   25.1510 C   0  0  0  0  0  0  0  0  0  0  0  0
    8.1150    0.7900   25.3680 C   0  0  0  0  0  0  0  0  0  0  0  0
    7.5460    1.0320   26.5170 N   0  0  0  0  0  0  0  0  0  0  0  0
    8.0760   -0.4230   24.8740 N   0  0  0  0  0  0  0  0  0  0  0  0
   10.4120    5.0800   23.0040 N   0  0  0  0  0  0  0  0  0  0  0  0
    9.1810    5.4660   24.7810 N   0  0  0  0  0  0  0  0  0  0  0  0
    9.9390    5.9890   23.8170 C   0  0  0  0  0  0  0  0  0  0  0  0
   10.2220    7.3480   23.6410 C   0  0  0  0  0  0  0  0  0  0  0  0
    9.8990    8.3340   24.5960 C   0  0  0  0  0  0  0  0  0  0  0  0
   10.1950    9.6930   24.3940 C   0  0  0  0  0  0  0  0  0  0  0  0
    9.9030   10.6870   25.3250 O   0  0  0  0  0  0  0  0  0  0  0  0
    9.6530   10.3160   26.6740 C   0  0  0  0  0  0  0  0  0  0  0  0
   10.8230   10.0670   23.2080 C   0  0  0  0  0  0  0  0  0  0  0  0
   11.1510    9.1200   22.2520 C   0  0  0  0  0  0  0  0  0  0  0  0
   10.8540    7.7810   22.4630 C   0  0  0  0  0  0  0  0  0  0  0  0
   11.1930    6.8740   21.4800 O   0  0  0  0  0  0  0  0  0  0  0  0
    9.6780    0.6190   23.1720 H   0  0  0  0  0  0  0  0  0  0  0  0
   10.7850    2.5000   22.0070 H   0  0  0  0  0  0  0  0  0  0  0  0
    8.0080    3.3930   26.0160 H   0  0  0  0  0  0  0  0  0  0  0  0
    7.5730    1.9440   26.9430 H   0  0  0  0  0  0  0  0  0  0  0  0
    7.1030    0.3080   27.0520 H   0  0  0  0  0  0  0  0  0  0  0  0
    8.4810   -0.6360   23.9740 H   0  0  0  0  0  0  0  0  0  0  0  0
    7.6380   -1.1680   25.3820 H   0  0  0  0  0  0  0  0  0  0  0  0
   10.9920    5.2820   22.2370 H   0  0  0  0  0  0  0  0  0  0  0  0
    9.4110    8.0310   25.5100 H   0  0  0  0  0  0  0  0  0  0  0  0
   10.0230   11.0900   27.3270 H   0  0  0  0  0  0  0  0  0  0  0  0
    8.5920   10.1780   26.8040 H   0  0  0  0  0  0  0  0  0  0  0  0
   10.1490    9.3920   26.9080 H   0  0  0  0  0  0  0  0  0  0  0  0
   11.0580   11.1040   23.0290 H   0  0  0  0  0  0  0  0  0  0  0  0
   11.6420    9.4250   21.3400 H   0  0  0  0  0  0  0  0  0  0  0  0
  1  2  2  0
  2  3  1  0
  3  4  2  0
  4  5  1  0
  1  6  1  0
  5  6  2  0
  1  7  1  0
  7  8  1  0
  7  9  2  0
  4 10  1  0
  5 11  1  0
 10 12  1  0
 11 12  2  0
 12 13  1  0
 13 14  2  0
 14 15  1  0
 15 16  1  0
 16 17  1  0
 15 18  2  0
 18 19  1  0
 13 20  1  0
 19 20  2  0
 20 21  1  0
  2 22  1  0
  3 23  1  0
  6 24  1  0
  8 25  1  0
  8 26  1  0
  9 27  1  0
  9 28  1  0
 10 29  1  0
 14 30  1  0
 17 31  1  0
 17 32  1  0
 17 33  1  0
 18 34  1  0
 19 35  1  0
M  CHG  1   9   1
M  END
$$$$
