2YJW_YJW_A_1224_
     RDKit          3D

 20 22  0  0  0  0  0  0  0  0999 V2000
   30.0203    9.9975   27.0942 N   0  0  0  0  0  0  0  0  0  0  0  0
   30.8444    9.7098   26.0736 C   0  0  0  0  0  0  0  0  0  0  0  0
   31.5591    8.5196   26.2676 C   0  0  0  0  0  0  0  0  0  0  0  0
   31.1991    8.0181   27.4733 C   0  0  0  0  0  0  0  0  0  0  0  0
   30.9247   10.5329   24.9081 C   0  0  0  0  0  0  0  0  0  0  0  0
   32.5155    7.8425   25.4392 C   0  0  0  0  0  0  0  0  0  0  0  0
   31.7018    6.7801   28.0890 C   0  0  0  0  0  0  0  0  0  0  0  0
   32.0197    7.2996   24.2476 C   0  0  0  0  0  0  0  0  0  0  0  0
   32.8985    6.5898   23.3413 C   0  0  0  0  0  0  0  0  0  0  0  0
   34.2632    6.4498   23.6377 C   0  0  0  0  0  0  0  0  0  0  0  0
   34.8096    6.9815   24.8587 C   0  0  0  0  0  0  0  0  0  0  0  0
   33.9188    7.6775   25.7821 C   0  0  0  0  0  0  0  0  0  0  0  0
   29.6628   10.9020   24.2253 C   0  0  0  0  0  0  0  0  0  0  0  0
   29.7716   11.6508   23.0233 C   0  0  0  0  0  0  0  0  0  0  0  0
   31.0963   12.0051   22.5337 C   0  0  0  0  0  0  0  0  0  0  0  0
   32.3274   11.6809   23.2008 C   0  0  0  0  0  0  0  0  0  0  0  0
   32.2075   10.8781   24.3738 C   0  0  0  0  0  0  0  0  0  0  0  0
   31.1375   12.6788   21.3530 O   0  0  0  0  0  0  0  0  0  0  0  0
   30.2718    8.8290   28.0559 O   0  0  0  0  0  0  0  0  0  0  0  0
   28.4469   10.5076   24.7733 O   0  0  0  0  0  0  0  0  0  0  0  0
  1  2  2  0
  2  3  1  0
  3  4  2  0
  2  5  1  0
  3  6  1  0
  4  7  1  0
  6  8  2  0
  8  9  1  0
  9 10  2  0
 10 11  1  0
  6 12  1  0
 11 12  2  0
  5 13  2  0
 13 14  1  0
 14 15  2  0
 15 16  1  0
  5 17  1  0
 16 17  2  0
 15 18  1  0
  1 19  1  0
  4 19  1  0
 13 20  1  0
M  END
$$$$
