2HDQ_C21_B_510_
     RDKit          3D

  8  8  0  0  0  0  0  0  0  0999 V2000
   54.6296    0.5443   21.6629 O   0  0  0  0  0  0  0  0  0  0  0  0
   53.4795    0.9972   21.8995 C   0  0  0  0  0  0  0  0  0  0  0  0
   52.9291    1.8379   21.1436 O   0  0  0  0  0  0  0  0  0  0  0  0
   52.7338    0.5343   23.1070 C   0  0  0  0  0  0  0  0  0  0  0  0
   53.5286   -0.6165   24.1359 S   0  0  0  0  0  0  0  0  0  0  0  0
   51.4725    0.8567   23.6152 C   0  0  0  0  0  0  0  0  0  0  0  0
   51.1680    0.1763   24.8019 C   0  0  0  0  0  0  0  0  0  0  0  0
   52.1851   -0.6744   25.2222 C   0  0  0  0  0  0  0  0  0  0  0  0
  1  2  2  0
  2  3  1  0
  2  4  1  0
  4  5  1  0
  4  6  2  0
  6  7  1  0
  5  8  1  0
  7  8  2  0
M  END
$$$$
