
     RDKit          3D

 15 16  0  0  0  0  0  0  0  0999 V2000
   -4.4910   -0.0297    0.5652 C   0  0  0  0  0  0  0  0  0  0  0  0
   -3.7995   -0.6349   -0.6509 C   0  0  0  0  0  0  0  0  0  0  0  0
    0.6443    1.6661   -0.5452 C   0  0  0  0  0  0  0  0  0  0  0  0
    2.0298    1.6240   -0.3160 C   0  0  0  0  0  0  0  0  0  0  0  0
    0.4575   -0.7099   -0.0097 C   0  0  0  0  0  0  0  0  0  0  0  0
   -0.1532    0.5031   -0.3950 C   0  0  0  0  0  0  0  0  0  0  0  0
    2.6119    0.4146    0.0637 C   0  0  0  0  0  0  0  0  0  0  0  0
    1.8318   -0.7222    0.2107 C   0  0  0  0  0  0  0  0  0  0  0  0
   -1.6114    0.5546   -0.6369 C   0  0  0  0  0  0  0  0  0  0  0  0
    4.1953   -1.0470    0.6622 C   0  0  0  0  0  0  0  0  0  0  0  0
    5.3828   -1.4695    0.9507 N   0  0  0  0  0  0  0  0  0  0  0  0
    3.9341    0.2350    0.3158 N   0  0  0  0  0  0  0  0  0  0  0  0
   -2.1580    1.6391   -0.9802 O   0  0  0  0  0  0  0  0  0  0  0  0
   -2.3826   -0.6058   -0.4904 O   0  0  0  0  0  0  0  0  0  0  0  0
    2.8057   -2.0154    0.6726 S   0  0  0  0  0  0  0  0  0  0  0  0
  1  2  1  0
  2 14  1  0
  3  4  2  0
  3  6  1  0
  4  7  1  0
  5  6  2  0
  5  8  1  0
  6  9  1  0
  7  8  2  0
  7 12  1  0
  8 15  1  0
  9 13  2  0
  9 14  1  0
 10 11  2  3
 10 12  1  0
 10 15  1  0
M  END
$$$$
