
     RDKit          3D

 32 35  0  0  0  0  0  0  0  0999 V2000
   -1.2441   -4.1436    2.6726 C   0  0  0  0  0  0  0  0  0  0  0  0
   -1.9191   -5.4703    0.6198 C   0  0  0  0  0  0  0  0  0  0  0  0
    1.5767   -0.6690   -0.9917 C   0  0  0  0  0  0  0  0  0  0  0  0
    1.6431    0.5441    1.2348 C   0  0  0  0  0  0  0  0  0  0  0  0
    0.0973   -1.0099   -0.7657 C   0  0  0  0  0  0  0  0  0  0  0  0
    0.1651    0.2013    1.4636 C   0  0  0  0  0  0  0  0  0  0  0  0
    4.4584    0.1549   -0.0827 C   0  0  0  0  0  0  0  0  0  0  0  0
    5.7990    0.5031   -0.3145 C   0  0  0  0  0  0  0  0  0  0  0  0
   -2.5923    3.5469   -1.8824 C   0  0  0  0  0  0  0  0  0  0  0  0
   -2.6676    2.0401   -2.0792 C   0  0  0  0  0  0  0  0  0  0  0  0
    3.7345    2.2047   -1.1737 C   0  0  0  0  0  0  0  0  0  0  0  0
   -3.0795    2.5023    0.2590 C   0  0  0  0  0  0  0  0  0  0  0  0
    6.8906    3.3706   -1.9098 C   0  0  0  0  0  0  0  0  0  0  0  0
    1.9519    0.6413   -0.2716 C   0  0  1  0  0  0  0  0  0  0  0  0
   -0.2198   -1.1113    0.7468 C   0  0  1  0  0  0  0  0  0  0  0  0
    3.4041    1.0033   -0.5112 C   0  0  0  0  0  0  0  0  0  0  0  0
    6.0453    1.7017   -0.9741 C   0  0  0  0  0  0  0  0  0  0  0  0
   -1.6737   -1.5755    1.0946 C   0  0  1  0  0  0  0  0  0  0  0  0
   -2.8258   -0.5266    0.8756 C   0  0  1  0  0  0  0  0  0  0  0  0
   -1.9585   -2.9642    0.5265 C   0  0  0  0  0  0  0  0  0  0  0  0
   -2.9300    0.0607   -0.5173 C   0  0  0  0  0  0  0  0  0  0  0  0
   -3.2117    3.8120   -0.5111 C   0  0  0  0  0  0  0  0  0  0  0  0
   -4.5492    4.1423   -0.6571 F   0  0  0  0  0  0  0  0  0  0  0  0
   -2.5519    4.8416    0.1400 F   0  0  0  0  0  0  0  0  0  0  0  0
   -4.1318   -1.0637    1.2709 N   0  0  0  0  0  0  0  0  0  0  0  0
    7.2472    2.2133   -1.2924 N   0  0  0  0  0  0  0  0  0  0  0  0
    5.5495    3.5529   -1.9648 N   0  0  0  0  0  0  0  0  0  0  0  0
   -1.7061   -4.1764    1.2791 N   0  0  0  0  0  0  0  0  0  0  0  0
   -2.8425    1.4798   -0.7488 N   0  0  0  0  0  0  0  0  0  0  0  0
    5.0447    2.4910   -1.3706 N   0  0  0  0  0  0  0  0  0  0  0  0
   -2.3779   -3.0635   -0.6585 O   0  0  0  0  0  0  0  0  0  0  0  0
   -3.1311   -0.7039   -1.4991 O   0  0  0  0  0  0  0  0  0  0  0  0
  1 28  1  0
  2 28  1  0
  3  5  1  0
  3 14  1  0
  4  6  1  0
  4 14  1  0
 15  5  1  6
  6 15  1  0
  7  8  2  0
  7 16  1  0
  8 17  1  0
  9 10  1  0
  9 22  1  0
 10 29  1  0
 11 16  2  0
 11 30  1  0
 12 22  1  0
 12 29  1  0
 13 26  1  0
 13 27  2  0
 14 16  1  1
 15 18  1  0
 17 26  2  0
 17 30  1  0
 18 19  1  0
 18 20  1  6
 19 21  1  0
 19 25  1  6
 20 28  1  0
 20 31  2  0
 21 29  1  0
 21 32  2  0
 22 23  1  0
 22 24  1  0
 27 30  1  0
M  END
$$$$
