2QTB_474_B_2322_
     RDKit          3D

 32 35  0  0  0  0  0  0  0  0999 V2000
   -4.8660   62.9780   34.8310 C   0  0  0  0  0  0  0  0  0  0  0  0
   -3.5830   63.8740   35.0060 C   0  0  0  0  0  0  0  0  0  0  0  0
   -2.3760   63.0750   35.5500 C   0  0  0  0  0  0  0  0  0  0  0  0
   -1.8550   63.5060   36.7410 N   0  0  0  0  0  0  0  0  0  0  0  0
   -5.5140   62.6350   36.0530 C   0  0  0  0  0  0  0  0  0  0  0  0
   -3.1390   64.4910   33.7410 N   0  0  0  0  0  0  0  0  0  0  0  0
   -1.9280   62.1060   34.9350 O   0  0  0  0  0  0  0  0  0  0  0  0
   -5.5660   63.5690   36.8670 O   0  0  0  0  0  0  0  0  0  0  0  0
   -6.0550   61.3850   36.3760 N   0  0  0  0  0  0  0  0  0  0  0  0
   -6.0540   60.1820   35.5240 C   0  0  0  0  0  0  0  0  0  0  0  0
   -6.6900   61.2740   37.7110 C   0  0  0  0  0  0  0  0  0  0  0  0
   -2.3230   64.6300   37.5650 C   0  0  0  0  0  0  0  0  0  0  0  0
   -1.4230   64.5950   38.7730 C   0  0  0  0  0  0  0  0  0  0  0  0
   -0.1630   63.9720   38.2520 C   0  0  0  0  0  0  0  0  0  0  0  0
   -0.6940   62.8410   37.3620 C   0  0  0  0  0  0  0  0  0  0  0  0
   -1.9790   63.7550   39.6660 F   0  0  0  0  0  0  0  0  0  0  0  0
   -8.7040   64.4690   32.8880 C   0  0  0  0  0  0  0  0  0  0  0  0
   -7.9900   63.2160   32.3780 C   0  0  0  0  0  0  0  0  0  0  0  0
   -7.0280   62.6110   33.3800 C   0  0  0  0  0  0  0  0  0  0  0  0
   -5.9260   63.6050   33.7920 C   0  0  0  0  0  0  0  0  0  0  0  0
   -6.6070   64.9420   34.3000 C   0  0  0  0  0  0  0  0  0  0  0  0
   -7.6490   65.5340   33.2730 C   0  0  0  0  0  0  0  0  0  0  0  0
  -11.8920   66.0150   30.4040 C   0  0  0  0  0  0  0  0  0  0  0  0
  -10.5460   66.4620   29.9940 C   0  0  0  0  0  0  0  0  0  0  0  0
   -9.4680   66.0540   30.7200 C   0  0  0  0  0  0  0  0  0  0  0  0
   -9.6720   65.1420   31.9090 C   0  0  0  0  0  0  0  0  0  0  0  0
  -10.9150   64.7420   32.2770 C   0  0  0  0  0  0  0  0  0  0  0  0
  -12.0530   65.1860   31.4850 N   0  0  0  0  0  0  0  0  0  0  0  0
  -13.2520   64.9360   31.6580 N   0  0  0  0  0  0  0  0  0  0  0  0
  -13.9090   65.5830   30.6660 C   0  0  0  0  0  0  0  0  0  0  0  0
  -13.0930   66.2720   29.8490 N   0  0  0  0  0  0  0  0  0  0  0  0
   -1.2530   65.8040   39.3030 F   0  0  0  0  0  0  0  0  0  0  0  0
  1  2  1  0
  2  3  1  0
  3  4  1  0
  1  5  1  0
  2  6  1  0
  3  7  2  0
  5  8  2  0
  5  9  1  0
  9 10  1  0
  9 11  1  0
  4 12  1  0
 12 13  1  0
 13 14  1  0
  4 15  1  0
 14 15  1  0
 13 16  1  0
 17 18  1  0
 18 19  1  0
  1 20  1  0
 19 20  1  0
 20 21  1  0
 17 22  1  0
 21 22  1  0
 23 24  1  0
 24 25  2  0
 17 26  1  0
 25 26  1  0
 26 27  2  0
 23 28  1  0
 27 28  1  0
 28 29  1  0
 29 30  2  0
 23 31  2  0
 30 31  1  0
 13 32  1  0
M  END
$$$$
