1BCD_FMS_A_500_
     RDKit          3D

  8  7  0  0  0  0  0  0  0  0999 V2000
   -6.4182    1.6522   17.0797 C   0  0  0  0  0  0  0  0  0  0  0  0
   -7.5581    1.3184   16.5985 F   0  0  0  0  0  0  0  0  0  0  0  0
   -6.4104    3.0169   17.0031 F   0  0  0  0  0  0  0  0  0  0  0  0
   -6.1897    1.1981   18.2677 F   0  0  0  0  0  0  0  0  0  0  0  0
   -5.1501    1.1264   15.9869 S   0  0  0  0  0  0  0  0  0  0  0  0
   -5.0769   -0.4868   15.8803 N   0  0  0  0  0  0  0  0  0  0  0  0
   -3.8514    1.5419   16.4942 O   0  0  0  0  0  0  0  0  0  0  0  0
   -5.5079    1.7152   14.6919 O   0  0  0  0  0  0  0  0  0  0  0  0
  1  2  1  0
  1  3  1  0
  1  4  1  0
  1  5  1  0
  5  6  1  0
  5  7  2  0
  5  8  2  0
M  END
$$$$
