
     RDKit          3D

 10 10  0  0  0  0  0  0  0  0999 V2000
   -2.4281   -0.1346   -0.1261 C   0  0  0  0  0  0  0  0  0  0  0  0
   -1.6929   -1.3404    0.4709 C   0  0  0  0  0  0  0  0  0  0  0  0
   -1.5723    0.5574   -1.1937 C   0  0  0  0  0  0  0  0  0  0  0  0
   -0.3317   -0.9249    1.0427 C   0  0  0  0  0  0  0  0  0  0  0  0
   -0.2085    0.9710   -0.6256 C   0  0  0  0  0  0  0  0  0  0  0  0
    0.5352   -0.2401   -0.0315 C   0  0  0  0  0  0  0  0  0  0  0  0
    2.9517    0.5127   -0.2612 C   0  0  0  0  0  0  0  0  0  0  0  0
    1.8134    0.1890    0.5457 N   0  0  0  0  0  0  0  0  0  0  0  0
    2.8970    0.4180   -1.5171 O   0  0  0  0  0  0  0  0  0  0  0  0
    4.1302    0.9292    0.3493 O   0  0  0  0  0  0  0  0  0  0  0  0
  1  2  1  0
  1  3  1  0
  2  4  1  0
  3  5  1  0
  4  6  1  0
  5  6  1  0
  6  8  1  0
  7  8  1  0
  7  9  2  0
  7 10  1  0
M  END
$$$$
