3LJ7_OHO_B_1_
     RDKit          3D

  9  9  0  0  0  0  0  0  0  0999 V2000
   -1.6169  -24.1630  -37.8014 N   0  0  0  0  0  0  0  0  0  0  0  0
   -0.5554  -23.9171  -37.0202 C   0  0  0  0  0  0  0  0  0  0  0  0
   -0.6353  -23.8622  -35.7790 O   0  0  0  0  0  0  0  0  0  0  0  0
   -2.9480  -24.3781  -37.2484 C   0  0  0  0  0  0  0  0  0  0  0  0
   -3.7528  -25.3239  -38.1330 C   0  0  0  0  0  0  0  0  0  0  0  0
   -5.1602  -25.5642  -37.5736 C   0  0  0  0  0  0  0  0  0  0  0  0
   -5.9257  -24.2617  -37.3294 C   0  0  0  0  0  0  0  0  0  0  0  0
   -5.0786  -23.2438  -36.5568 C   0  0  0  0  0  0  0  0  0  0  0  0
   -3.6922  -23.0485  -37.1765 C   0  0  0  0  0  0  0  0  0  0  0  0
  1  2  1  0
  2  3  2  0
  1  4  1  0
  4  5  1  0
  5  6  1  0
  6  7  1  0
  7  8  1  0
  4  9  1  0
  8  9  1  0
M  END
$$$$
