
     RDKit          3D

 27 29  0  0  0  0  0  0  0  0999 V2000
    1.1000   -2.6132   -0.3226 C   0  0  0  0  0  0  0  0  0  0  0  0
   -0.1589   -2.2296   -0.7899 C   0  0  0  0  0  0  0  0  0  0  0  0
    2.0196   -1.6464    0.0912 C   0  0  0  0  0  0  0  0  0  0  0  0
    6.1421    1.5092    0.9606 C   0  0  0  0  0  0  0  0  0  0  0  0
    4.7514    1.5515    1.0779 C   0  0  0  0  0  0  0  0  0  0  0  0
   -4.3741   -0.6804   -0.9825 C   0  0  0  0  0  0  0  0  0  0  0  0
   -2.8858    0.1603    0.9539 C   0  0  0  0  0  0  0  0  0  0  0  0
   -5.5123   -0.5505    0.0360 C   0  0  0  0  0  0  0  0  0  0  0  0
   -3.9774    1.2349    1.0045 C   0  0  0  0  0  0  0  0  0  0  0  0
   -1.8795   -0.4622   -1.3309 C   0  0  0  0  0  0  0  0  0  0  0  0
    0.4162    0.0965   -0.4203 C   0  0  0  0  0  0  0  0  0  0  0  0
    5.9257   -0.2816   -0.6402 C   0  0  0  0  0  0  0  0  0  0  0  0
   -2.9896   -0.7596   -0.2969 C   0  0  0  0  0  0  0  0  0  0  0  0
   -0.5128   -0.8716   -0.8380 C   0  0  0  0  0  0  0  0  0  0  0  0
    6.7506    0.5703    0.1116 C   0  0  0  0  0  0  0  0  0  0  0  0
    1.6874   -0.2805    0.0295 C   0  0  0  0  0  0  0  0  0  0  0  0
    3.9703    0.6616    0.3374 C   0  0  0  0  0  0  0  0  0  0  0  0
   -6.4189    1.1733    1.6339 C   0  0  0  0  0  0  0  0  0  0  0  0
    8.2474    0.5364   -0.0679 C   0  0  0  0  0  0  0  0  0  0  0  0
    8.8915    1.0424    1.0457 F   0  0  0  0  0  0  0  0  0  0  0  0
    8.6802   -0.7622   -0.2632 F   0  0  0  0  0  0  0  0  0  0  0  0
    8.5901    1.2954   -1.1683 F   0  0  0  0  0  0  0  0  0  0  0  0
    4.5739   -0.2196   -0.5086 N   0  0  0  0  0  0  0  0  0  0  0  0
   -5.3045    0.6118    0.9152 N   0  0  0  0  0  0  0  0  0  0  0  0
   -7.5236    0.5664    1.6689 O   0  0  0  0  0  0  0  0  0  0  0  0
   -6.2896    2.3917    2.2970 O   0  0  0  0  0  0  0  0  0  0  0  0
    2.5750    0.7227    0.4458 O   0  0  0  0  0  0  0  0  0  0  0  0
  1  2  2  0
  1  3  1  0
  2 14  1  0
  3 16  2  0
  4  5  2  0
  4 15  1  0
  5 17  1  0
  6  8  1  0
  6 13  1  0
  7  9  1  0
  7 13  1  0
  8 24  1  0
  9 24  1  0
 10 13  1  0
 10 14  1  0
 11 14  2  0
 11 16  1  0
 12 15  2  0
 12 23  1  0
 15 19  1  0
 16 27  1  0
 17 23  2  0
 17 27  1  0
 18 24  1  0
 18 25  2  0
 18 26  1  0
 19 20  1  0
 19 21  1  0
 19 22  1  0
M  END
$$$$
