
     RDKit          3D

 16 17  0  0  0  0  0  0  0  0999 V2000
    3.3139   -1.0719    0.7160 C   0  0  0  0  0  0  0  0  0  0  0  0
    4.0457   -0.2502   -0.1184 C   0  0  0  0  0  0  0  0  0  0  0  0
    1.9964   -0.6790    0.6004 C   0  0  0  0  0  0  0  0  0  0  0  0
    3.1462    0.6127   -0.7104 C   0  0  0  0  0  0  0  0  0  0  0  0
   -2.8028    0.8150    0.7797 C   0  0  0  0  0  0  0  0  0  0  0  0
   -2.3148   -1.2193   -0.4334 C   0  0  0  0  0  0  0  0  0  0  0  0
   -3.1968   -0.4487    0.3262 C   0  0  0  0  0  0  0  0  0  0  0  0
   -1.5285    1.3118    0.4846 C   0  0  0  0  0  0  0  0  0  0  0  0
   -1.0394   -0.7328   -0.7500 C   0  0  0  0  0  0  0  0  0  0  0  0
   -0.6343    0.5361   -0.2892 C   0  0  0  0  0  0  0  0  0  0  0  0
    0.7043    1.0497   -0.6490 C   0  0  0  0  0  0  0  0  0  0  0  0
    1.8994    0.3434   -0.2745 N   0  0  0  0  0  0  0  0  0  0  0  0
   -4.4628   -0.9475    0.6251 O   0  0  0  0  0  0  0  0  0  0  0  0
   -1.1758    2.5654    0.9893 O   0  0  0  0  0  0  0  0  0  0  0  0
   -0.1787   -1.5018   -1.5341 O   0  0  0  0  0  0  0  0  0  0  0  0
    0.7914    2.1221   -1.3067 O   0  0  0  0  0  0  0  0  0  0  0  0
  1  2  1  0
  1  3  2  0
  2  4  2  0
  3 12  1  0
  4 12  1  0
  5  7  2  0
  5  8  1  0
  6  7  1  0
  6  9  2  0
  7 13  1  0
  8 10  2  0
  8 14  1  0
  9 10  1  0
  9 15  1  0
 10 11  1  0
 11 12  1  0
 11 16  2  0
M  END
$$$$
