3I7C_BK2_A_701_
     RDKit          3D

 24 27  0  0  0  0  0  0  0  0999 V2000
   16.4900   11.7995   63.0879 N   0  0  0  0  0  0  0  0  0  0  0  0
   17.6003   12.4049   62.6540 C   0  0  0  0  0  0  0  0  0  0  0  0
   17.6659   13.7224   62.4774 N   0  0  0  0  0  0  0  0  0  0  0  0
   16.6016   14.4995   62.7306 C   0  0  0  0  0  0  0  0  0  0  0  0
   15.4254   13.9185   63.1892 C   0  0  0  0  0  0  0  0  0  0  0  0
   15.3903   12.5309   63.3620 C   0  0  0  0  0  0  0  0  0  0  0  0
   16.6955   18.2195   62.1866 C   0  0  0  0  0  0  0  0  0  0  0  0
   18.5825   16.8400   63.1241 C   0  0  0  0  0  0  0  0  0  0  0  0
   17.7975   16.5024   60.7631 C   0  0  0  0  0  0  0  0  0  0  0  0
   14.3039   11.9072   63.7830 N   0  0  0  0  0  0  0  0  0  0  0  0
    8.8039   14.6668   66.1090 C   0  0  0  0  0  0  0  0  0  0  0  0
    9.7216   13.9754   66.8942 C   0  0  0  0  0  0  0  0  0  0  0  0
   12.3142   15.7117   63.0415 C   0  0  0  0  0  0  0  0  0  0  0  0
    9.2382   15.2828   64.9413 C   0  0  0  0  0  0  0  0  0  0  0  0
   11.0644   13.8771   66.5317 C   0  0  0  0  0  0  0  0  0  0  0  0
   10.9892   15.7948   63.4261 C   0  0  0  0  0  0  0  0  0  0  0  0
   12.8366   14.4060   64.9915 C   0  0  0  0  0  0  0  0  0  0  0  0
   15.2264   16.1010   63.0000 N   0  0  0  0  0  0  0  0  0  0  0  0
   13.2439   15.0052   63.7977 C   0  0  0  0  0  0  0  0  0  0  0  0
   14.5608   15.0061   63.3540 C   0  0  0  0  0  0  0  0  0  0  0  0
   10.5730   15.1876   64.5848 C   0  0  0  0  0  0  0  0  0  0  0  0
   11.4996   14.4932   65.3750 C   0  0  0  0  0  0  0  0  0  0  0  0
   16.3797   15.8181   62.6579 N   0  0  0  0  0  0  0  0  0  0  0  0
   17.3713   16.8445   62.1952 C   0  0  0  0  0  0  0  0  0  0  0  0
  1  2  2  0
  2  3  1  0
  3  4  2  0
  4  5  1  0
  1  6  1  0
  5  6  2  0
  6 10  1  0
 11 12  2  0
 11 14  1  0
 12 15  1  0
 13 16  2  0
 13 19  1  0
 17 19  2  0
  5 20  1  0
 18 20  2  0
 19 20  1  0
 14 21  2  0
 16 21  1  0
 15 22  2  0
 17 22  1  0
 21 22  1  0
  4 23  1  0
 18 23  1  0
  7 24  1  0
  8 24  1  0
  9 24  1  0
 23 24  1  0
M  END
$$$$
