2XDL_2DL_A_1225_
     RDKit          3D

 16 16  0  0  0  0  0  0  0  0999 V2000
    7.6940   21.0870   17.9175 C   0  0  0  0  0  0  0  0  0  0  0  0
    8.8744   21.2525   17.1857 C   0  0  0  0  0  0  0  0  0  0  0  0
    9.9601   20.4528   17.4597 C   0  0  0  0  0  0  0  0  0  0  0  0
    9.9191   19.4977   18.4648 C   0  0  0  0  0  0  0  0  0  0  0  0
    8.7431   19.3330   19.2050 C   0  0  0  0  0  0  0  0  0  0  0  0
    7.6401   20.1221   18.9348 C   0  0  0  0  0  0  0  0  0  0  0  0
    6.6090   21.8584   17.6260 O   0  0  0  0  0  0  0  0  0  0  0  0
   10.6174   16.1661   16.3467 C   0  0  0  0  0  0  0  0  0  0  0  0
   10.8588   17.6513   16.5006 C   0  0  0  0  0  0  0  0  0  0  0  0
   12.9707   17.3199   17.7862 C   0  0  0  0  0  0  0  0  0  0  0  0
   13.8701   17.7029   16.6244 C   0  0  0  0  0  0  0  0  0  0  0  0
   11.1292   18.6709   18.7407 C   0  0  0  0  0  0  0  0  0  0  0  0
   11.6209   18.6808   19.8461 O   0  0  0  0  0  0  0  0  0  0  0  0
    8.8630   22.2066   16.2014 O   0  0  0  0  0  0  0  0  0  0  0  0
   11.6638   17.9701   17.6974 N   0  0  0  0  0  0  0  0  0  0  0  0
    9.6645   21.9519   15.0174 C   0  0  0  0  0  0  0  0  0  0  0  0
  1  2  2  0
  2  3  1  0
  3  4  2  0
  4  5  1  0
  1  6  1  0
  5  6  2  0
  1  7  1  0
  8  9  1  0
 10 11  1  0
  4 12  1  0
 12 13  2  0
  2 14  1  0
  9 15  1  0
 10 15  1  0
 12 15  1  0
 14 16  1  0
M  END
$$$$
