
     RDKit          3D

 23 25  0  0  0  0  0  0  0  0999 V2000
   -2.7869   -2.2291   -0.1727 C   0  0  0  0  0  0  0  0  0  0  0  0
    7.0927    0.0779   -0.4861 C   0  0  0  0  0  0  0  0  0  0  0  0
    6.4917    0.4324   -1.7148 C   0  0  0  0  0  0  0  0  0  0  0  0
    6.3029   -0.1306    0.6597 C   0  0  0  0  0  0  0  0  0  0  0  0
    5.0955    0.5816   -1.8087 C   0  0  0  0  0  0  0  0  0  0  0  0
    3.9180   -0.1124    1.4662 C   0  0  0  0  0  0  0  0  0  0  0  0
   -1.0216    0.4333    1.0378 C   0  0  0  0  0  0  0  0  0  0  0  0
   -2.9462   -1.1855   -1.2967 C   0  0  1  0  0  0  0  0  0  0  0  0
    4.9239    0.0247    0.5346 C   0  0  0  0  0  0  0  0  0  0  0  0
    4.3395    0.3686   -0.6567 C   0  0  0  0  0  0  0  0  0  0  0  0
    2.7433    0.1641    0.7690 C   0  0  0  0  0  0  0  0  0  0  0  0
   -1.9487    0.8134   -0.1367 C   0  0  2  0  0  0  0  0  0  0  0  0
   -4.3634   -0.5349   -1.3719 C   0  0  2  0  0  0  0  0  0  0  0  0
   -3.4000    1.0822    0.3476 C   0  0  2  0  0  0  0  0  0  0  0  0
   -4.3804    0.9128   -0.8245 C   0  0  2  0  0  0  0  0  0  0  0  0
    1.3931    0.1415    1.3509 C   0  0  0  0  0  0  0  0  0  0  0  0
    0.3705    0.4226    0.5969 N   0  0  0  0  0  0  0  0  0  0  0  0
   -1.8808   -0.1640   -1.2531 N   0  0  0  0  0  0  0  0  0  0  0  0
    3.0055    0.4575   -0.5283 N   0  0  0  0  0  0  0  0  0  0  0  0
   -5.3202   -1.3217   -0.7046 O   0  0  0  0  0  0  0  0  0  0  0  0
   -3.5035    2.3935    0.8439 O   0  0  0  0  0  0  0  0  0  0  0  0
   -5.6844    1.3127   -0.4747 O   0  0  0  0  0  0  0  0  0  0  0  0
    1.2441   -0.1835    2.7025 O   0  0  0  0  0  0  0  0  0  0  0  0
  8  1  1  1
  2  3  2  0
  2  4  1  0
  3  5  1  0
  4  9  2  0
  5 10  2  0
  6  9  1  0
  6 11  2  0
 12  7  1  1
  7 17  1  0
  8 13  1  0
  8 18  1  0
  9 10  1  0
 10 19  1  0
 11 16  1  0
 11 19  1  0
 12 14  1  0
 12 18  1  0
 13 15  1  0
 13 20  1  1
 14 15  1  0
 14 21  1  6
 15 22  1  1
 16 17  2  3
 16 23  1  0
M  END
$$$$
