2ZX7_ZX7_B_902_
     RDKit          3D

 23 25  0  0  0  0  0  0  0  0999 V2000
   25.8960    2.8760   59.2980 O   0  0  0  0  0  0  0  0  0  0  0  0
   26.0080    4.3030   59.3100 C   0  0  0  0  0  0  0  0  0  0  0  0
   27.1270    4.7570   60.2520 C   0  0  0  0  0  0  0  0  0  0  0  0
   26.8270    4.3580   61.5900 O   0  0  0  0  0  0  0  0  0  0  0  0
   27.2550    6.2800   60.2360 C   0  0  0  0  0  0  0  0  0  0  0  0
   26.1400    6.8460   60.9290 O   0  0  0  0  0  0  0  0  0  0  0  0
   27.3730    6.8130   58.8030 C   0  0  0  0  0  0  0  0  0  0  0  0
   27.3000    8.3410   58.8000 C   0  0  0  0  0  0  0  0  0  0  0  0
   26.3060    6.2850   57.9340 N   0  0  0  0  0  0  0  0  0  0  0  0
   26.3010    4.8150   57.8980 C   0  0  0  0  0  0  0  0  0  0  0  0
   25.2360    4.3010   56.9280 C   0  0  0  0  0  0  0  0  0  0  0  0
   25.5650    4.6880   55.5510 N   0  0  0  0  0  0  0  0  0  0  0  0
   24.6640    4.5980   54.5760 C   0  0  0  0  0  0  0  0  0  0  0  0
   23.5000    4.2450   54.7570 O   0  0  0  0  0  0  0  0  0  0  0  0
   25.1280    5.0510   53.1860 C   0  0  0  0  0  0  0  0  0  0  0  0
   24.2510    5.4840   52.2840 C   0  0  0  0  0  0  0  0  0  0  0  0
   24.9370    6.1950   51.3910 C   0  0  0  0  0  0  0  0  0  0  0  0
   24.5300    7.0060   50.3350 C   0  0  0  0  0  0  0  0  0  0  0  0
   25.4570    7.7770   49.6410 C   0  0  0  0  0  0  0  0  0  0  0  0
   26.7990    7.7180   50.0050 C   0  0  0  0  0  0  0  0  0  0  0  0
   27.2090    6.9030   51.0560 C   0  0  0  0  0  0  0  0  0  0  0  0
   26.2790    6.1440   51.7580 C   0  0  0  0  0  0  0  0  0  0  0  0
   26.3690    5.4100   52.8680 N   0  0  0  0  0  0  0  0  0  0  0  0
  1  2  1  0
  2  3  1  0
  3  4  1  0
  3  5  1  0
  5  6  1  0
  5  7  1  0
  7  8  1  0
  7  9  1  0
  2 10  1  0
  9 10  1  0
 10 11  1  0
 11 12  1  0
 12 13  1  0
 13 14  2  0
 13 15  1  0
 15 16  2  0
 16 17  1  0
 17 18  2  0
 18 19  1  0
 19 20  2  0
 20 21  1  0
 17 22  1  0
 21 22  2  0
 15 23  1  0
 22 23  1  0
M  END
$$$$
