
     RDKit          3D

 15 16  0  0  0  0  0  0  0  0999 V2000
   -2.1181    0.4237   -0.5585 C   0  0  0  0  0  0  0  0  0  0  0  0
    1.7052   -2.5491    0.6446 C   0  0  0  0  0  0  0  0  0  0  0  0
    0.6911   -1.5762    0.7229 C   0  0  0  0  0  0  0  0  0  0  0  0
   -1.2176    0.9035    0.5842 C   0  0  0  0  0  0  0  0  0  0  0  0
   -3.6029    0.5377   -0.1992 C   0  0  0  0  0  0  0  0  0  0  0  0
    3.2273   -0.9294   -0.3859 C   0  0  0  0  0  0  0  0  0  0  0  0
    2.9687   -2.2282    0.0941 C   0  0  0  0  0  0  0  0  0  0  0  0
    2.2038    0.0103   -0.2911 C   0  0  0  0  0  0  0  0  0  0  0  0
    0.9825   -0.2969    0.2458 C   0  0  0  0  0  0  0  0  0  0  0  0
    0.9680    1.7349   -0.3984 C   0  0  0  0  0  0  0  0  0  0  0  0
    4.2179   -3.4555    0.0021 Cl  0  0  0  0  0  0  0  0  0  0  0  0
    0.5585    2.9348   -0.6633 N   0  0  0  0  0  0  0  0  0  0  0  0
    2.2125    1.2905   -0.7016 N   0  0  0  0  0  0  0  0  0  0  0  0
    0.1902    0.7930    0.1961 N   0  0  0  0  0  0  0  0  0  0  0  0
   -3.9223   -0.2964    0.8820 O   0  0  0  0  0  0  0  0  0  0  0  0
  1  4  1  0
  1  5  1  0
  2  3  2  0
  2  7  1  0
  3  9  1  0
  4 14  1  0
  5 15  1  0
  6  7  2  0
  6  8  1  0
  7 11  1  0
  8  9  2  0
  8 13  1  0
  9 14  1  0
 10 12  2  3
 10 13  1  0
 10 14  1  0
M  END
$$$$
