
     RDKit          3D

 24 26  0  0  0  0  0  0  0  0999 V2000
   -1.7486   -2.1280   -1.3414 C   0  0  0  0  0  0  0  0  0  0  0  0
   -4.9803    1.5594    0.6020 C   0  0  0  0  0  0  0  0  0  0  0  0
   -3.5683    1.8836    1.1022 C   0  0  0  0  0  0  0  0  0  0  0  0
   -5.3645    0.0871    0.8641 C   0  0  0  0  0  0  0  0  0  0  0  0
    1.4291   -1.2421    0.8734 C   0  0  0  0  0  0  0  0  0  0  0  0
   -2.4992    1.0219    0.3997 C   0  0  0  0  0  0  0  0  0  0  0  0
   -4.1527   -0.8656    0.9198 C   0  0  0  0  0  0  0  0  0  0  0  0
    0.3055   -2.2875    0.8666 C   0  0  0  0  0  0  0  0  0  0  0  0
    5.6349   -0.6009   -1.9647 C   0  0  0  0  0  0  0  0  0  0  0  0
    4.2903   -0.6711   -1.5543 C   0  0  0  0  0  0  0  0  0  0  0  0
    1.4115   -0.3550   -0.3765 C   0  0  0  0  0  0  0  0  0  0  0  0
    5.8708    1.6061   -0.9306 C   0  0  0  0  0  0  0  0  0  0  0  0
    6.4221    0.5318   -1.6560 C   0  0  0  0  0  0  0  0  0  0  0  0
   -3.0200   -0.3830   -0.0048 C   0  0  0  0  0  0  0  0  0  0  0  0
    4.5369    1.5097   -0.5446 C   0  0  0  0  0  0  0  0  0  0  0  0
    3.7699    0.4162   -0.8464 C   0  0  0  0  0  0  0  0  0  0  0  0
   -1.0504   -1.6456    1.0354 C   0  0  0  0  0  0  0  0  0  0  0  0
    2.6031    1.7988    0.2866 C   0  0  0  0  0  0  0  0  0  0  0  0
    8.0963    0.6001   -2.1752 Cl  0  0  0  0  0  0  0  0  0  0  0  0
    1.6317    2.3357    0.9573 N   0  0  0  0  0  0  0  0  0  0  0  0
    3.8148    2.3912    0.1675 N   0  0  0  0  0  0  0  0  0  0  0  0
   -1.9263   -1.3776   -0.0907 N   0  0  0  0  0  0  0  0  0  0  0  0
    2.5312    0.5897   -0.3394 N   0  0  0  0  0  0  0  0  0  0  0  0
   -1.3900   -1.2938    2.1976 O   0  0  0  0  0  0  0  0  0  0  0  0
  1 22  1  0
  2  3  1  0
  2  4  1  0
  3  6  1  0
  4  7  1  0
  5  8  1  0
  5 11  1  0
  6 14  1  0
  7 14  1  0
  8 17  1  0
  9 10  2  0
  9 13  1  0
 10 16  1  0
 11 23  1  0
 12 13  2  0
 12 15  1  0
 13 19  1  0
 14 22  1  0
 15 16  2  0
 15 21  1  0
 16 23  1  0
 17 22  1  0
 17 24  2  0
 18 20  2  3
 18 21  1  0
 18 23  1  0
M  END
$$$$
