3EJ5_EJ5_X_300_
     RDKit          3D

 21 22  0  0  0  0  0  0  0  0999 V2000
   -2.0670    9.4530    5.1680 C   0  0  0  0  0  0  0  0  0  0  0  0
   -1.5940   10.5040    5.9710 C   0  0  0  0  0  0  0  0  0  0  0  0
   -0.4380   10.3470    6.7590 C   0  0  0  0  0  0  0  0  0  0  0  0
    0.1290   11.4790    7.6570 C   0  0  0  0  0  0  0  0  0  0  0  0
    0.2580   11.2490    8.8900 O   0  0  0  0  0  0  0  0  0  0  0  0
    0.4480   12.5620    7.1000 O   0  0  0  0  0  0  0  0  0  0  0  0
    0.2330    9.1280    6.7280 C   0  0  0  0  0  0  0  0  0  0  0  0
   -0.2370    8.0980    5.9230 C   0  0  0  0  0  0  0  0  0  0  0  0
   -1.3890    8.2380    5.1420 C   0  0  0  0  0  0  0  0  0  0  0  0
   -1.8800    7.0610    4.2680 C   0  0  0  0  0  0  0  0  0  0  0  0
   -0.8590    5.9010    4.2900 C   0  0  0  0  0  0  0  0  0  0  0  0
   -0.9480    5.1070    5.6270 C   0  0  0  0  0  0  0  0  0  0  0  0
    0.3430    4.6980    6.3930 C   0  0  0  0  0  0  0  0  0  0  0  0
    0.2860    4.0320    7.6490 C   0  0  0  0  0  0  0  0  0  0  0  0
   -0.8760    3.7150    8.2490 O   0  0  0  0  0  0  0  0  0  0  0  0
    1.3560    3.6380    8.3530 N   0  0  0  0  0  0  0  0  0  0  0  0
    2.5830    3.8560    7.8980 C   0  0  0  0  0  0  0  0  0  0  0  0
    3.6170    3.4450    8.6410 N   0  0  0  0  0  0  0  0  0  0  0  0
    2.7330    4.5090    6.6480 N   0  0  0  0  0  0  0  0  0  0  0  0
    1.6290    4.9290    5.8980 C   0  0  0  0  0  0  0  0  0  0  0  0
    1.8260    5.4980    4.8130 O   0  0  0  0  0  0  0  0  0  0  0  0
  1  2  2  0
  2  3  1  0
  3  4  1  0
  4  5  1  0
  4  6  2  0
  3  7  2  0
  7  8  1  0
  1  9  1  0
  8  9  2  0
  9 10  1  0
 10 11  1  0
 11 12  1  0
 12 13  1  0
 13 14  2  0
 14 15  1  0
 14 16  1  0
 16 17  2  0
 17 18  1  0
 17 19  1  0
 13 20  1  0
 19 20  1  0
 20 21  2  0
M  END
$$$$
