2F7O_MSN_A_5002_B
     RDKit          3D

 11 11  0  0  0  0  0  0  0  0999 V2000
   31.3049   66.2128    9.1113 C   0  0  0  0  0  0  0  0  0  0  0  0
   31.1318   64.8503    9.6221 N   0  0  0  0  0  0  0  0  0  0  0  0
   32.7878   66.5211    9.1666 C   0  0  0  0  0  0  0  0  0  0  0  0
   33.6071   65.4242    9.5792 O   0  0  0  0  0  0  0  0  0  0  0  0
   33.0591   67.0304    7.7468 C   0  0  0  0  0  0  0  0  0  0  0  0
   33.8175   66.1280    6.9481 O   0  0  0  0  0  0  0  0  0  0  0  0
   31.7833   67.3580    6.9773 C   0  0  0  0  0  0  0  0  0  0  0  0
   31.7481   67.5811    5.5666 O   0  0  0  0  0  0  0  0  0  0  0  0
   30.9192   66.2679    7.6403 C   0  0  0  0  0  0  0  0  0  0  0  0
   29.2165   66.8412    7.6748 S   0  0  0  0  0  0  0  0  0  0  0  0
   28.5713   66.3741    6.0616 C   0  0  0  0  0  0  0  0  0  0  0  0
  1  2  1  0
  1  3  1  0
  3  4  1  0
  3  5  1  0
  5  6  1  0
  5  7  1  0
  7  8  1  0
  1  9  1  0
  7  9  1  0
  9 10  1  0
 10 11  1  0
M  END
$$$$
