
     RDKit          3D

 12 12  0  0  0  0  0  0  0  0999 V2000
    2.8256   -0.0395   -0.3952 C   0  0  0  0  0  0  0  0  0  0  0  0
   -0.2201   -0.9334    0.9818 C   0  0  1  0  0  0  0  0  0  0  0  0
   -1.1948   -1.1530   -0.1814 C   0  0  2  0  0  0  0  0  0  0  0  0
   -0.7301   -0.1566   -1.2400 C   0  0  2  0  0  0  0  0  0  0  0  0
   -0.2766    1.0806   -0.4555 C   0  0  2  0  0  0  0  0  0  0  0  0
    0.2388    0.5398    0.8923 C   0  0  2  0  0  0  0  0  0  0  0  0
   -0.8214   -1.2594    2.2794 N   0  0  0  0  0  0  0  0  0  0  0  0
   -2.5155   -0.8697    0.2137 O   0  0  0  0  0  0  0  0  0  0  0  0
   -1.7537    0.1361   -2.1562 O   0  0  0  0  0  0  0  0  0  0  0  0
   -1.3653    1.9408   -0.2222 O   0  0  0  0  0  0  0  0  0  0  0  0
    2.3227    2.1726    0.9329 O   0  0  0  0  0  0  0  0  0  0  0  0
    2.0486    0.6806    1.0698 S   0  0  0  0  0  4  0  0  0  0  0  0
 12  1  1  6
  2  3  1  0
  2  6  1  0
  2  7  1  1
  3  4  1  0
  3  8  1  1
  4  5  1  0
  4  9  1  6
  5  6  1  0
  5 10  1  1
  6 12  1  6
 11 12  2  0
M  END
$$$$
