
     RDKit          3D

 14 13  0  0  0  0  0  0  0  0999 V2000
    0.8080    0.1027    0.0987 C   0  0  0  0  0  0  0  0  0  0  0  0
    1.9215    1.1488    0.2526 C   0  0  0  0  0  0  0  0  0  0  0  0
   -1.5594   -0.3752   -0.7574 C   0  0  0  0  0  0  0  0  0  0  0  0
   -0.4052    0.6480   -0.6886 C   0  0  2  0  0  0  0  0  0  0  0  0
    3.0363    0.6066    1.0900 C   0  0  0  0  0  0  0  0  0  0  0  0
    0.0012    1.0187   -2.0911 C   0  0  0  0  0  0  0  0  0  0  0  0
    3.9862   -0.0199    0.5484 O   0  0  0  0  0  0  0  0  0  0  0  0
    2.9999    0.7557    2.4728 O   0  0  0  0  0  0  0  0  0  0  0  0
   -0.1321    2.2055   -2.4938 O   0  0  0  0  0  0  0  0  0  0  0  0
    0.5215    0.0516   -2.9470 O   0  0  0  0  0  0  0  0  0  0  0  0
   -1.4934   -1.5457    1.8821 O   0  0  0  0  0  0  0  0  0  0  0  0
   -3.8996   -1.3750    0.5600 O   0  0  0  0  0  0  0  0  0  0  0  0
   -2.6856    0.7522    1.4769 O   0  0  0  0  0  0  0  0  0  0  0  0
   -2.4243   -0.5936    0.8381 P   0  0  0  0  0  5  0  0  0  0  0  0
  1  2  1  0
  4  1  1  6
  2  5  1  0
  3  4  1  0
  3 14  1  0
  4  6  1  0
  5  7  2  0
  5  8  1  0
  6  9  2  0
  6 10  1  0
 11 14  1  0
 12 14  1  0
 13 14  2  0
M  END
$$$$
