
     RDKit          3D

 21 21  0  0  0  0  0  0  0  0999 V2000
    3.4772    1.0331   -1.2679 C   0  0  0  0  0  0  0  0  0  0  0  0
    4.0818   -0.2038    0.7284 C   0  0  0  0  0  0  0  0  0  0  0  0
   -3.3173   -0.5610    0.2444 C   0  0  0  0  0  0  0  0  0  0  0  0
    4.8115    1.0088   -1.6849 C   0  0  0  0  0  0  0  0  0  0  0  0
    5.4153   -0.2263    0.3084 C   0  0  0  0  0  0  0  0  0  0  0  0
   -4.3817    0.2979   -0.4532 C   0  0  0  0  0  0  0  0  0  0  0  0
    1.6653    0.4304    0.3792 C   0  0  0  0  0  0  0  0  0  0  0  0
   -0.8718   -1.1959    0.3913 C   0  0  0  0  0  0  0  0  0  0  0  0
    3.1044    0.4345   -0.0529 C   0  0  0  0  0  0  0  0  0  0  0  0
   -1.8833   -0.1824   -0.1849 C   0  0  2  0  0  0  0  0  0  0  0  0
    5.7814    0.3809   -0.8970 C   0  0  0  0  0  0  0  0  0  0  0  0
   -5.7538   -0.1434   -0.0531 C   0  0  0  0  0  0  0  0  0  0  0  0
   -1.5584    1.2194    0.2596 C   0  0  0  0  0  0  0  0  0  0  0  0
    7.7928    0.3429   -1.5298 I   0  0  0  0  0  0  0  0  0  0  0  0
   -6.3591   -1.0172   -0.7298 O   0  0  0  0  0  0  0  0  0  0  0  0
   -6.3431    0.3805    1.0933 O   0  0  0  0  0  0  0  0  0  0  0  0
   -1.4139    2.1331   -0.5963 O   0  0  0  0  0  0  0  0  0  0  0  0
   -1.4407    1.5156    1.6149 O   0  0  0  0  0  0  0  0  0  0  0  0
    1.6961   -2.4044    0.0613 O   0  0  0  0  0  0  0  0  0  0  0  0
    0.7176   -0.8780   -1.8210 O   0  0  0  0  0  0  0  0  0  0  0  0
    0.8048   -1.0160   -0.3174 P   0  0  2  0  0  5  0  0  0  0  0  0
  1  4  2  0
  1  9  1  0
  2  5  1  0
  2  9  2  0
  3  6  1  0
 10  3  1  1
  4 11  1  0
  5 11  2  0
  6 12  1  0
  7  9  1  0
  7 21  1  0
  8 10  1  0
  8 21  1  0
 10 13  1  0
 11 14  1  0
 12 15  2  0
 12 16  1  0
 13 17  2  0
 13 18  1  0
 21 19  1  6
 20 21  2  0
M  END
$$$$
