
     RDKit          3D

 40 45  0  0  0  0  0  0  0  0999 V2000
   -4.6611   -3.0927   -2.1900 C   0  0  0  0  0  0  0  0  0  0  0  0
   -9.3375    1.5426   -1.8162 C   0  0  0  0  0  0  0  0  0  0  0  0
   10.1862    2.5985    0.4717 C   0  0  0  0  0  0  0  0  0  0  0  0
   -5.6183   -2.8450   -1.2001 C   0  0  0  0  0  0  0  0  0  0  0  0
   -3.6409   -2.1679   -2.4275 C   0  0  0  0  0  0  0  0  0  0  0  0
   -8.2375    0.9672   -2.4621 C   0  0  0  0  0  0  0  0  0  0  0  0
   -9.1825    2.1122   -0.5490 C   0  0  0  0  0  0  0  0  0  0  0  0
    8.9780    2.8646    1.1254 C   0  0  0  0  0  0  0  0  0  0  0  0
   10.3510    1.3988   -0.2247 C   0  0  0  0  0  0  0  0  0  0  0  0
   -5.5597   -1.6673   -0.4499 C   0  0  0  0  0  0  0  0  0  0  0  0
   -3.5770   -0.9908   -1.6760 C   0  0  0  0  0  0  0  0  0  0  0  0
   -6.9840    0.9546   -1.8379 C   0  0  0  0  0  0  0  0  0  0  0  0
   -7.9306    2.0963    0.0820 C   0  0  0  0  0  0  0  0  0  0  0  0
    7.9401    1.9271    1.0923 C   0  0  0  0  0  0  0  0  0  0  0  0
    9.3158    0.4540   -0.2524 C   0  0  0  0  0  0  0  0  0  0  0  0
    2.8143   -0.2675    0.8748 C   0  0  0  0  0  0  0  0  0  0  0  0
    2.3374   -2.0812   -0.6572 C   0  0  0  0  0  0  0  0  0  0  0  0
    4.1351   -0.7095    0.9885 C   0  0  0  0  0  0  0  0  0  0  0  0
    3.6575   -2.5249   -0.5421 C   0  0  0  0  0  0  0  0  0  0  0  0
    0.4758   -0.4922   -0.0458 C   0  0  0  0  0  0  0  0  0  0  0  0
   -0.3600   -1.1541    1.0528 C   0  0  0  0  0  0  0  0  0  0  0  0
   -1.8967    2.6082    2.4446 C   0  0  0  0  0  0  0  0  0  0  0  0
    1.9101   -0.9411    0.0400 C   0  0  0  0  0  0  0  0  0  0  0  0
   -4.5390   -0.7329   -0.6846 C   0  0  0  0  0  0  0  0  0  0  0  0
   -6.8244    1.5003   -0.5489 C   0  0  0  0  0  0  0  0  0  0  0  0
    8.1133    0.7025    0.4348 C   0  0  0  0  0  0  0  0  0  0  0  0
    4.5736   -1.8323    0.2628 C   0  0  0  0  0  0  0  0  0  0  0  0
   -4.5065    0.5349    0.0692 C   0  0  0  0  0  0  0  0  0  0  0  0
   -3.4782    1.0330    0.8583 C   0  0  0  0  0  0  0  0  0  0  0  0
   -5.5075    1.5164    0.1262 C   0  0  0  0  0  0  0  0  0  0  0  0
   -2.2228    0.5573    1.2571 C   0  0  0  0  0  0  0  0  0  0  0  0
   -3.9048    2.2512    1.3074 C   0  0  0  0  0  0  0  0  0  0  0  0
    7.0831   -1.5133    0.5852 C   0  0  0  0  0  0  0  0  0  0  0  0
   -1.7628   -0.7634    0.9320 N   0  0  0  0  0  0  0  0  0  0  0  0
   -1.4569    1.3778    2.0391 N   0  0  0  0  0  0  0  0  0  0  0  0
   -3.1370    3.0477    2.0901 N   0  0  0  0  0  0  0  0  0  0  0  0
    7.0194   -0.2257    0.3916 N   0  0  0  0  0  0  0  0  0  0  0  0
    5.9185   -2.3297    0.3856 N   0  0  0  0  0  0  0  0  0  0  0  0
    8.2680   -2.1382    0.9873 O   0  0  0  0  0  0  0  0  0  0  0  0
   -5.1100    2.5259    0.8822 O   0  0  0  0  0  0  0  0  0  0  0  0
  1  4  2  0
  1  5  1  0
  2  6  2  0
  2  7  1  0
  3  8  2  0
  3  9  1  0
  4 10  1  0
  5 11  2  0
  6 12  1  0
  7 13  2  0
  8 14  1  0
  9 15  2  0
 10 24  2  0
 11 24  1  0
 12 25  2  0
 13 25  1  0
 14 26  2  0
 15 26  1  0
 16 18  2  0
 16 23  1  0
 17 19  1  0
 17 23  2  0
 18 27  1  0
 19 27  2  0
 20 21  1  0
 20 23  1  0
 21 34  1  0
 22 35  2  0
 22 36  1  0
 24 28  1  0
 25 30  1  0
 26 37  1  0
 27 38  1  0
 28 29  1  0
 28 30  2  0
 29 31  2  0
 29 32  1  0
 30 40  1  0
 31 34  1  0
 31 35  1  0
 32 36  2  0
 32 40  1  0
 33 37  2  3
 33 38  1  0
 33 39  1  0
M  END
$$$$
