
     RDKit          3D

 25 28  0  0  0  0  0  0  0  0999 V2000
   -0.3870    3.6723   -0.4394 C   0  0  0  0  0  0  0  0  0  0  0  0
    5.4948    0.6850    0.0001 C   0  0  0  0  0  0  0  0  0  0  0  0
    0.3216    3.2733    0.6978 C   0  0  0  0  0  0  0  0  0  0  0  0
   -0.8537    2.7147   -1.3448 C   0  0  0  0  0  0  0  0  0  0  0  0
    4.4403    1.1678   -0.7786 C   0  0  0  0  0  0  0  0  0  0  0  0
    5.2825   -0.3794    0.8794 C   0  0  0  0  0  0  0  0  0  0  0  0
    0.5603    1.9161    0.9344 C   0  0  0  0  0  0  0  0  0  0  0  0
   -0.6146    1.3570   -1.1129 C   0  0  0  0  0  0  0  0  0  0  0  0
    3.1699    0.5934   -0.6733 C   0  0  0  0  0  0  0  0  0  0  0  0
    4.0136   -0.9567    0.9880 C   0  0  0  0  0  0  0  0  0  0  0  0
   -4.2519   -0.4909    0.3628 C   0  0  0  0  0  0  0  0  0  0  0  0
   -4.6430   -0.8932   -1.0601 C   0  0  0  0  0  0  0  0  0  0  0  0
   -1.7509   -3.9368    0.8461 C   0  0  0  0  0  0  0  0  0  0  0  0
    0.0843    0.9504    0.0343 C   0  0  0  0  0  0  0  0  0  0  0  0
    2.9409   -0.4638    0.2264 C   0  0  0  0  0  0  0  0  0  0  0  0
    0.3551   -0.4783    0.2679 C   0  0  0  0  0  0  0  0  0  0  0  0
   -0.5636   -1.5018    0.4570 C   0  0  0  0  0  0  0  0  0  0  0  0
    1.6108   -1.0983    0.3536 C   0  0  0  0  0  0  0  0  0  0  0  0
   -1.9620   -1.5748    0.5374 C   0  0  0  0  0  0  0  0  0  0  0  0
    0.1773   -2.6391    0.6198 C   0  0  0  0  0  0  0  0  0  0  0  0
   -2.7987   -0.4076    0.5042 N   0  0  0  0  0  0  0  0  0  0  0  0
   -2.5175   -2.8106    0.7216 N   0  0  0  0  0  0  0  0  0  0  0  0
   -0.3903   -3.8533    0.8092 N   0  0  0  0  0  0  0  0  0  0  0  0
   -4.2413    0.0889   -1.9767 O   0  0  0  0  0  0  0  0  0  0  0  0
    1.4612   -2.3925    0.5694 O   0  0  0  0  0  0  0  0  0  0  0  0
  1  3  2  0
  1  4  1  0
  2  5  2  0
  2  6  1  0
  3  7  1  0
  4  8  2  0
  5  9  1  0
  6 10  2  0
  7 14  2  0
  8 14  1  0
  9 15  2  0
 10 15  1  0
 11 12  1  0
 11 21  1  0
 12 24  1  0
 13 22  2  0
 13 23  1  0
 14 16  1  0
 15 18  1  0
 16 17  1  0
 16 18  2  0
 17 19  2  0
 17 20  1  0
 18 25  1  0
 19 21  1  0
 19 22  1  0
 20 23  2  0
 20 25  1  0
M  END
$$$$
