
     RDKit          3D

 12 12  0  0  0  0  0  0  0  0999 V2000
   -1.3843   -0.1905   -1.7175 C   0  0  0  0  0  0  0  0  0  0  0  0
   -1.7973    1.1747    0.9208 C   0  0  0  0  0  0  0  0  0  0  0  0
   -2.8680   -0.9949    0.9399 C   0  0  0  0  0  0  0  0  0  0  0  0
    2.7973   -1.0006    0.8281 C   0  0  0  0  0  0  0  0  0  0  0  0
    1.4454   -1.2668    0.5961 C   0  0  0  0  0  0  0  0  0  0  0  0
    3.3865    0.1479    0.2978 C   0  0  0  0  0  0  0  0  0  0  0  0
    1.2681    0.7750   -0.6975 C   0  0  0  0  0  0  0  0  0  0  0  0
   -0.8115   -0.7056   -0.3774 C   0  0  1  0  0  0  0  0  0  0  0  0
    0.6652   -0.3925   -0.1829 C   0  0  0  0  0  0  0  0  0  0  0  0
    2.6220    1.0405   -0.4630 C   0  0  0  0  0  0  0  0  0  0  0  0
   -1.5863   -0.2803    0.8190 N   0  0  0  0  0  0  0  0  0  0  0  0
    3.1962    2.1961   -0.9881 O   0  0  0  0  0  0  0  0  0  0  0  0
  8  1  1  6
  2 11  1  0
  3 11  1  0
  4  5  2  0
  4  6  1  0
  5  9  1  0
  6 10  2  0
  7  9  2  0
  7 10  1  0
  8  9  1  0
  8 11  1  0
 10 12  1  0
M  END
$$$$
