2FDA_682_A_1_
     RDKit          3D

 26 26  0  0  0  0  0  0  0  0999 V2000
   11.3739   51.1081   25.2386 C   0  0  0  0  0  0  0  0  0  0  0  0
   11.6568   51.2108   23.7233 C   0  0  0  0  0  0  0  0  0  0  0  0
   11.7409   52.3621   26.0453 C   0  0  0  0  0  0  0  0  0  0  0  0
   13.1252   53.3785   22.5715 O   0  0  0  0  0  0  0  0  0  0  0  0
   13.1138   51.3479   23.5659 N   0  0  0  0  0  0  0  0  0  0  0  0
    9.9820   50.8265   25.3426 O   0  0  0  0  0  0  0  0  0  0  0  0
   11.3194   49.9456   22.8903 C   0  0  0  0  0  0  0  0  0  0  0  0
   11.5701   50.0813   21.3831 C   0  0  0  0  0  0  0  0  0  0  0  0
   11.2536   48.7772   20.6668 C   0  0  0  0  0  0  0  0  0  0  0  0
   11.4671   48.9895   19.2263 N   0  0  0  0  0  0  0  0  0  0  0  0
   11.2928   48.0742   18.2607 C   0  0  0  0  0  0  0  0  0  0  0  0
   10.9021   46.8269   18.5668 N   0  0  0  0  0  0  0  0  0  0  0  0
   11.5073   48.4221   16.9850 N   0  0  0  0  0  0  0  0  0  0  0  0
   12.9646   52.6135   26.3427 N   0  0  0  0  0  0  0  0  0  0  0  0
   13.0539   53.7946   27.0722 C   0  0  0  0  0  0  0  0  0  0  0  0
   11.8146   54.3831   27.2845 C   0  0  0  0  0  0  0  0  0  0  0  0
   10.5473   53.4808   26.5885 S   0  0  0  0  0  0  0  0  0  0  0  0
   15.6648   52.9286   21.6187 N   0  0  0  0  0  0  0  0  0  0  0  0
   15.2631   52.3467   22.9134 C   0  0  0  0  0  0  0  0  0  0  0  0
   13.7341   52.4039   23.0077 C   0  0  0  0  0  0  0  0  0  0  0  0
   15.9237   53.1084   24.0941 C   0  0  0  0  0  0  0  0  0  0  0  0
   17.4071   52.7272   24.2141 C   0  0  0  0  0  0  0  0  0  0  0  0
   15.8335   54.6459   23.9378 C   0  0  0  0  0  0  0  0  0  0  0  0
   15.2958   52.4966   20.3920 C   0  0  0  0  0  0  0  0  0  0  0  0
   15.8771   53.2978   19.2255 N   0  0  0  0  0  0  0  0  0  0  0  0
   14.5497   51.5334   20.2020 O   0  0  0  0  0  0  0  0  0  0  0  0
  1  2  1  0
  1  3  1  0
  2  5  1  0
  1  6  1  0
  2  7  1  0
  7  8  1  0
  8  9  1  0
  9 10  1  0
 10 11  1  0
 11 12  2  0
 11 13  1  0
  3 14  2  0
 14 15  1  0
 15 16  2  0
  3 17  1  0
 16 17  1  0
 18 19  1  0
  4 20  2  0
  5 20  1  0
 19 20  1  0
 19 21  1  0
 21 22  1  0
 21 23  1  0
 18 24  1  0
 24 25  1  0
 24 26  2  0
M  END
$$$$
