
     RDKit          3D

 34 35  0  0  0  0  0  0  0  0999 V2000
    1.5358    3.6468    1.5514 C   0  0  0  0  0  0  0  0  0  0  0  0
    0.5944    2.5501   -0.5009 C   0  0  0  0  0  0  0  0  0  0  0  0
    7.4910   -0.6070    2.9737 C   0  0  0  0  0  0  0  0  0  0  0  0
   -4.5409   -0.9365   -0.2913 C   0  0  0  0  0  0  0  0  0  0  0  0
    6.2010   -0.4235    2.4672 C   0  0  0  0  0  0  0  0  0  0  0  0
    8.6030   -0.3760    2.1621 C   0  0  0  0  0  0  0  0  0  0  0  0
   -3.2518   -0.1024   -0.2398 C   0  0  0  0  0  0  0  0  0  0  0  0
   -5.6014   -0.2548   -1.1628 C   0  0  0  0  0  0  0  0  0  0  0  0
    0.4426   -1.4011   -2.7640 C   0  0  0  0  0  0  0  0  0  0  0  0
    0.5877   -2.7687   -2.9615 C   0  0  0  0  0  0  0  0  0  0  0  0
    7.1384    0.2149    0.3252 C   0  0  0  0  0  0  0  0  0  0  0  0
    0.6147    2.5303    1.0393 C   0  0  0  0  0  0  0  0  0  0  0  0
    6.0116    0.0040    1.1397 C   0  0  0  0  0  0  0  0  0  0  0  0
    8.4280    0.0313    0.8368 C   0  0  0  0  0  0  0  0  0  0  0  0
   -2.1862   -0.7266    0.6777 C   0  0  1  0  0  0  0  0  0  0  0  0
    1.0273    1.1493    1.6374 C   0  0  1  0  0  0  0  0  0  0  0  0
    4.6511    0.1949    0.5815 C   0  0  0  0  0  0  0  0  0  0  0  0
   -1.7006   -2.0500    0.1282 C   0  0  0  0  0  0  0  0  0  0  0  0
   -0.0907    0.1353    1.6641 C   0  0  0  0  0  0  0  0  0  0  0  0
    3.5274    0.6971    1.4014 C   0  0  0  0  0  0  0  0  0  0  0  0
   -0.8257   -2.1279   -1.0564 C   0  0  0  0  0  0  0  0  0  0  0  0
   -7.9703   -0.6380   -1.9736 C   0  0  0  0  0  0  0  0  0  0  0  0
    9.8252    0.3119   -0.1847 Cl  0  0  0  0  0  0  0  0  0  0  0  0
   -7.9429    0.4722   -2.6418 N   0  0  0  0  0  0  0  0  0  0  0  0
   -9.1452   -1.4524   -1.9850 N   0  0  0  0  0  0  0  0  0  0  0  0
   -0.3380   -1.0497   -1.7093 N   0  0  0  0  0  0  0  0  0  0  0  0
   -6.8269   -1.0528   -1.2148 N   0  0  0  0  0  0  0  0  0  0  0  0
   -1.0705    0.2106    0.8087 N   0  0  0  0  0  0  0  0  0  0  0  0
    2.1765    0.5799    0.9261 N   0  0  0  0  0  0  0  0  0  0  0  0
    4.4512   -0.0548   -0.6382 O   0  0  0  0  0  0  0  0  0  0  0  0
   -2.0711   -3.1157    0.6878 O   0  0  0  0  0  0  0  0  0  0  0  0
   -0.0107   -0.8996    2.6008 O   0  0  0  0  0  0  0  0  0  0  0  0
    3.7601    1.2563    2.5072 O   0  0  0  0  0  0  0  0  0  0  0  0
   -0.2969   -3.5573   -1.7695 S   0  0  0  0  0  0  0  0  0  0  0  0
  1 12  1  0
  2 12  1  0
  3  5  2  0
  3  6  1  0
  4  7  1  0
  4  8  1  0
  5 13  1  0
  6 14  2  0
 15  7  1  6
  8 27  1  0
  9 10  2  0
  9 26  1  0
 10 34  1  0
 11 13  2  0
 11 14  1  0
 12 16  1  0
 13 17  1  0
 14 23  1  0
 15 18  1  0
 15 28  1  0
 16 19  1  0
 16 29  1  6
 17 20  1  0
 17 30  2  0
 18 21  1  0
 18 31  2  0
 19 28  2  3
 19 32  1  0
 20 29  1  0
 20 33  2  0
 21 26  2  0
 21 34  1  0
 22 24  2  3
 22 25  1  0
 22 27  1  0
M  END
$$$$
