3LGP_50X_B_485_
     RDKit          3D

 41 45  0  0  0  0  0  0  0  0999 V2000
   49.5500   35.0790   36.7670 N   0  0  0  0  0  0  0  0  0  0  0  0
   50.4670   35.2540   35.6290 C   0  0  0  0  0  0  0  0  0  0  0  0
   49.5600   35.3790   34.4210 C   0  0  0  0  0  0  0  0  0  0  0  0
   48.1850   34.8480   34.8670 C   0  0  0  0  0  0  0  0  0  0  0  0
   48.2140   34.6810   36.3780 C   0  0  0  0  0  0  0  0  0  0  0  0
   48.2140   28.7680   47.5220 C   0  0  0  0  0  0  0  0  0  0  0  0
   48.1640   27.3530   47.5920 C   0  0  0  0  0  0  0  0  0  0  0  0
   46.9000   26.7050   47.6240 C   0  0  0  0  0  0  0  0  0  0  0  0
   45.7000   27.4880   47.5570 C   0  0  0  0  0  0  0  0  0  0  0  0
   45.7800   28.9210   47.5260 C   0  0  0  0  0  0  0  0  0  0  0  0
   47.0550   29.5290   47.4690 C   0  0  0  0  0  0  0  0  0  0  0  0
   49.6130   29.0550   47.4780 N   0  0  0  0  0  0  0  0  0  0  0  0
   50.2970   27.8440   47.5510 C   0  0  0  0  0  0  0  0  0  0  0  0
   49.4540   26.8240   47.6070 N   0  0  0  0  0  0  0  0  0  0  0  0
   48.9070   31.7350   43.8200 C   0  0  0  0  0  0  0  0  0  0  0  0
   48.6580   31.9290   45.5240 S   0  0  0  0  0  0  0  0  0  0  0  0
   49.9450   30.8530   45.9090 C   0  0  0  0  0  0  0  0  0  0  0  0
   50.6130   30.4430   44.7500 C   0  0  0  0  0  0  0  0  0  0  0  0
   50.0820   31.0530   43.5570 C   0  0  0  0  0  0  0  0  0  0  0  0
   50.0250   35.3110   37.9900 C   0  0  0  0  0  0  0  0  0  0  0  0
   49.0700   34.9840   39.2290 C   0  0  0  0  0  0  0  0  0  0  0  0
   49.2020   33.4880   39.4220 C   0  0  0  0  0  0  0  0  0  0  0  0
   48.2520   32.9900   40.5000 C   0  0  0  0  0  0  0  0  0  0  0  0
   47.0890   32.7700   40.2130 O   0  0  0  0  0  0  0  0  0  0  0  0
   48.7910   32.9960   41.7780 N   0  0  0  0  0  0  0  0  0  0  0  0
   49.6300   35.6560   40.3780 O   0  0  0  0  0  0  0  0  0  0  0  0
   48.0350   32.5420   42.9290 C   0  0  0  0  0  0  0  0  0  0  0  0
   50.5680   33.2840   39.8480 O   0  0  0  0  0  0  0  0  0  0  0  0
   51.1820   35.7930   38.1700 O   0  0  0  0  0  0  0  0  0  0  0  0
   50.2330   30.4160   47.3280 C   0  0  0  0  0  0  0  0  0  0  0  0
   51.8050   27.7390   47.5330 C   0  0  0  0  0  0  0  0  0  0  0  0
   52.3270   26.4890   47.5340 F   0  0  0  0  0  0  0  0  0  0  0  0
   52.3770   28.3860   46.4840 F   0  0  0  0  0  0  0  0  0  0  0  0
   52.3350   28.2670   48.6400 F   0  0  0  0  0  0  0  0  0  0  0  0
   51.5200   34.1260   35.5520 C   0  0  0  0  0  0  0  0  0  0  0  0
   51.2340   32.8080   35.9710 C   0  0  0  0  0  0  0  0  0  0  0  0
   52.2400   31.8390   35.8740 C   0  0  0  0  0  0  0  0  0  0  0  0
   53.5250   32.1380   35.3730 C   0  0  0  0  0  0  0  0  0  0  0  0
   53.7990   33.4500   34.9340 C   0  0  0  0  0  0  0  0  0  0  0  0
   52.8030   34.4320   35.0270 C   0  0  0  0  0  0  0  0  0  0  0  0
   51.8780   30.2650   36.3740 Cl  0  0  0  0  0  0  0  0  0  0  0  0
  1  2  1  0
  2  3  1  0
  3  4  1  0
  1  5  1  0
  4  5  1  0
  6  7  1  0
  7  8  2  0
  8  9  1  0
  9 10  2  0
  6 11  2  0
 10 11  1  0
  6 12  1  0
 12 13  1  0
  7 14  1  0
 13 14  2  0
 15 16  1  0
 16 17  1  0
 17 18  2  0
 15 19  2  0
 18 19  1  0
  1 20  1  0
 20 21  1  0
 21 22  1  0
 22 23  1  0
 23 24  2  0
 23 25  1  0
 21 26  1  0
 15 27  1  0
 25 27  1  0
 22 28  1  0
 20 29  2  0
 12 30  1  0
 17 30  1  0
 13 31  1  0
 31 32  1  0
 31 33  1  0
 31 34  1  0
  2 35  1  0
 35 36  2  0
 36 37  1  0
 37 38  2  0
 38 39  1  0
 35 40  1  0
 39 40  2  0
 37 41  1  0
M  END
$$$$
