
     RDKit          3D

 10 10  0  0  0  0  0  0  0  0999 V2000
   -0.2165   -1.3007   -0.3288 C   0  0  0  0  0  0  0  0  0  0  0  0
   -0.7096    1.0613   -0.5523 C   0  0  0  0  0  0  0  0  0  0  0  0
    1.1490   -1.0090   -0.2587 C   0  0  0  0  0  0  0  0  0  0  0  0
    0.6559    1.3529   -0.4820 C   0  0  0  0  0  0  0  0  0  0  0  0
   -2.6243   -0.5806   -0.5301 C   0  0  0  0  0  0  0  0  0  0  0  0
    3.0605    0.6362   -0.2377 C   0  0  0  0  0  0  0  0  0  0  0  0
   -1.1538   -0.2688   -0.4915 C   0  0  0  0  0  0  0  0  0  0  0  0
    1.5951    0.3185   -0.3506 C   0  0  0  0  0  0  0  0  0  0  0  0
   -3.1548   -0.6457    0.8273 N   0  0  0  0  0  0  0  0  0  0  0  0
    3.3873    0.9336    1.0919 O   0  0  0  0  0  0  0  0  0  0  0  0
  1  3  2  0
  1  7  1  0
  2  4  1  0
  2  7  2  0
  3  8  1  0
  4  8  2  0
  5  7  1  0
  5  9  1  0
  6  8  1  0
  6 10  1  0
M  END
$$$$
