
     RDKit          3D

 21 22  0  0  0  0  0  0  0  0999 V2000
    5.3818    2.5277    0.9156 C   0  0  0  0  0  0  0  0  0  0  0  0
   -7.4933    1.4624   -0.1761 C   0  0  0  0  0  0  0  0  0  0  0  0
    4.5041    1.5289    0.1769 C   0  0  0  0  0  0  0  0  0  0  0  0
   -2.7668   -2.2846    0.4729 C   0  0  0  0  0  0  0  0  0  0  0  0
   -4.1545   -2.0731    0.5419 C   0  0  0  0  0  0  0  0  0  0  0  0
    1.8968   -1.1305    0.1606 C   0  0  0  0  0  0  0  0  0  0  0  0
    2.3467   -0.4172   -1.1189 C   0  0  0  0  0  0  0  0  0  0  0  0
   -2.4170    0.0439   -0.1701 C   0  0  0  0  0  0  0  0  0  0  0  0
   -6.1500    0.8296   -0.0486 C   0  0  0  0  0  0  0  0  0  0  0  0
   -1.8908   -1.2272    0.1461 C   0  0  0  0  0  0  0  0  0  0  0  0
   -4.6545   -0.8022    0.2590 C   0  0  0  0  0  0  0  0  0  0  0  0
   -3.7946    0.2255   -0.0916 C   0  0  0  0  0  0  0  0  0  0  0  0
    0.4844   -0.7640    0.4922 C   0  0  0  0  0  0  0  0  0  0  0  0
    4.8320   -0.8015   -0.5742 C   0  0  0  0  0  0  0  0  0  0  0  0
    5.1611    0.2267    0.1557 N   0  0  0  0  0  0  0  0  0  0  0  0
    3.7169   -0.7881   -1.4832 N   0  0  0  0  0  0  0  0  0  0  0  0
   -5.9717   -0.4743    0.2768 N   0  0  0  0  0  0  0  0  0  0  0  0
   -0.4874   -1.4984    0.0296 N   0  0  0  0  0  0  0  0  0  0  0  0
    0.2564    0.3562    1.2962 O   0  0  0  0  0  0  0  0  0  0  0  0
    5.6178   -1.9482   -0.5110 O   0  0  0  0  0  0  0  0  0  0  0  0
   -4.6890    1.6110   -0.4020 S   0  0  0  0  0  0  0  0  0  0  0  0
  1  3  1  0
  2  9  1  0
  3 15  1  0
  4  5  2  0
  4 10  1  0
  5 11  1  0
  6  7  1  0
  6 13  1  0
  7 16  1  0
  8 10  2  0
  8 12  1  0
  9 17  2  0
  9 21  1  0
 10 18  1  0
 11 12  2  0
 11 17  1  0
 12 21  1  0
 13 18  2  3
 13 19  1  0
 14 15  2  3
 14 16  1  0
 14 20  1  0
M  END
$$$$
