4AL4_W7E_A_1333_AAA
     RDKit          3D

 36 38  0  0  0  0  0  0  0  0999 V2000
   13.2890  -13.9930    8.0910 C   0  0  0  0  0  0  0  0  0  0  0  0
   15.3080  -14.6270    9.2130 C   0  0  0  0  0  0  0  0  0  0  0  0
   12.5500  -14.5410    9.1230 C   0  0  0  0  0  0  0  0  0  0  0  0
   14.5550  -15.2040   10.2190 C   0  0  0  0  0  0  0  0  0  0  0  0
   21.5940   -5.8440    1.2450 C   0  0  0  0  0  0  0  0  0  0  0  0
   20.3280   -5.8080    1.8020 C   0  0  0  0  0  0  0  0  0  0  0  0
   19.4780   -7.2060    0.0350 C   0  0  0  0  0  0  0  0  0  0  0  0
   13.1740  -15.1450   10.2030 C   0  0  0  0  0  0  0  0  0  0  0  0
   21.8220   -6.5650    0.0720 C   0  0  0  0  0  0  0  0  0  0  0  0
   14.6700  -14.0120    8.1550 C   0  0  0  0  0  0  0  0  0  0  0  0
   19.2730   -6.4960    1.2130 C   0  0  0  0  0  0  0  0  0  0  0  0
   20.7490   -7.2360   -0.5160 C   0  0  0  0  0  0  0  0  0  0  0  0
   22.8890   -7.4550   -1.6700 C   0  0  0  0  0  0  0  0  0  0  0  0
   17.1260   -7.4910    1.9730 C   0  0  0  0  0  0  0  0  0  0  0  0
   12.0150  -17.8170    9.7670 C   0  0  0  0  0  0  0  0  0  0  0  0
   10.6980  -17.6120   11.8710 C   0  0  0  0  0  0  0  0  0  0  0  0
   14.8770   -9.9600    4.0980 C   0  0  0  0  0  0  0  0  0  0  0  0
   24.0140   -7.8010   -2.5850 C   0  0  0  0  0  0  0  0  0  0  0  0
   14.7510  -12.8410    6.0490 C   0  0  0  0  0  0  0  0  0  0  0  0
   12.3710  -15.8170   11.2870 C   0  0  0  0  0  0  0  0  0  0  0  0
   15.9420   -7.1680    2.8490 C   0  0  0  0  0  0  0  0  0  0  0  0
   15.6850  -11.8200    5.4780 C   0  0  0  0  0  0  0  0  0  0  0  0
   14.7550   -8.0540    2.5580 C   0  0  0  0  0  0  0  0  0  0  0  0
   11.3670  -16.8560   10.7470 C   0  0  0  0  0  0  0  0  0  0  0  0
   23.0330   -6.6950   -0.6090 N   0  0  0  0  0  0  0  0  0  0  0  0
   17.9810   -6.4600    1.7880 N   0  0  0  0  0  0  0  0  0  0  0  0
   15.1920  -11.2600    4.2260 N   0  0  0  0  0  0  0  0  0  0  0  0
   15.0320   -9.4510    2.8650 N   0  0  0  0  0  0  0  0  0  0  0  0
   17.2760   -8.6020    1.4720 O   0  0  0  0  0  0  0  0  0  0  0  0
   11.4980  -18.0690    8.6900 O   0  0  0  0  0  0  0  0  0  0  0  0
   11.1170  -18.6760   12.2980 O   0  0  0  0  0  0  0  0  0  0  0  0
   14.4290   -9.2970    5.0330 O   0  0  0  0  0  0  0  0  0  0  0  0
   13.1370  -18.3330   10.1620 O   0  0  0  0  0  0  0  0  0  0  0  0
    9.6620  -16.9890   12.3430 O   0  0  0  0  0  0  0  0  0  0  0  0
   15.4260  -13.4670    7.1460 O   0  0  0  0  0  0  0  0  0  0  0  0
   21.2820   -8.0300   -1.9680 S   0  0  0  0  0  0  0  0  0  0  0  0
  1  3  2  0
  2  4  1  0
  5  6  2  0
  4  8  2  0
  3  8  1  0
  5  9  1  0
  2 10  2  0
  1 10  1  0
  6 11  1  0
  7 11  2  0
  7 12  1  0
  9 12  2  0
 13 18  1  0
  8 20  1  0
 14 21  1  0
 19 22  1  0
 21 23  1  0
 15 24  1  0
 16 24  1  0
 20 24  1  0
  9 25  1  0
 13 25  2  0
 11 26  1  0
 14 26  1  0
 17 27  1  0
 22 27  1  0
 17 28  1  0
 23 28  1  0
 14 29  2  0
 15 30  2  0
 16 31  2  0
 17 32  2  0
 15 33  1  0
 16 34  1  0
 10 35  1  0
 19 35  1  0
 12 36  1  0
 13 36  1  0
M  END
$$$$
