2QNN_QN1_B_2501_B
     RDKit          3D

 53 57  0  0  0  0  0  0  0  0999 V2000
    5.4650  -14.7950  -15.7110 N   0  0  0  0  0  0  0  0  0  0  0  0
    6.6870  -14.4800  -15.2260 C   0  0  0  0  0  0  0  0  0  0  0  0
    7.7030  -15.5870  -15.1660 C   0  0  0  0  0  0  0  0  0  0  0  0
    8.9190  -15.3360  -14.5120 C   0  0  0  0  0  0  0  0  0  0  0  0
    9.8700  -16.3580  -14.4340 C   0  0  0  0  0  0  0  0  0  0  0  0
    9.5590  -17.6180  -14.9240 C   0  0  0  0  0  0  0  0  0  0  0  0
    8.3650  -17.8910  -15.6180 C   0  0  0  0  0  0  0  0  0  0  0  0
    7.4340  -16.8520  -15.7020 C   0  0  0  0  0  0  0  0  0  0  0  0
   10.7120  -18.9050  -14.7960 S   0  0  0  0  0  0  0  0  0  0  0  0
   11.0780  -18.9590  -13.3840 O   0  0  0  0  0  0  0  0  0  0  0  0
   10.0950  -20.0770  -15.4220 O   0  0  0  0  0  0  0  0  0  0  0  0
   12.1460  -18.5450  -15.6620 N   0  0  0  0  0  0  0  0  0  0  0  0
   13.3740  -18.2470  -14.9170 C   0  0  0  0  0  0  0  0  0  0  0  0
   14.1730  -19.5530  -14.6580 C   0  0  0  0  0  0  0  0  0  0  0  0
   15.5200  -19.6240  -15.0740 C   0  0  0  0  0  0  0  0  0  0  0  0
   16.2970  -20.7690  -14.8450 C   0  0  0  0  0  0  0  0  0  0  0  0
   15.7060  -21.8970  -14.2370 C   0  0  0  0  0  0  0  0  0  0  0  0
   16.5620  -23.1420  -13.9740 C   0  0  0  0  0  0  0  0  0  0  0  0
   14.3730  -21.8360  -13.8250 C   0  0  0  0  0  0  0  0  0  0  0  0
   13.6040  -20.6820  -14.0630 C   0  0  0  0  0  0  0  0  0  0  0  0
   12.0200  -18.6950  -17.1220 C   0  0  0  0  0  0  0  0  0  0  0  0
   12.7820  -17.6020  -17.8960 C   0  0  0  0  0  0  0  0  0  0  0  0
   14.1300  -18.1670  -18.2000 N   0  0  0  0  0  0  0  0  0  0  0  0
   14.0500  -19.6200  -18.2230 C   0  0  0  0  0  0  0  0  0  0  0  0
   12.7260  -20.0290  -17.5390 C   0  0  0  0  0  0  0  0  0  0  0  0
   11.9440  -20.8450  -18.4430 N   0  0  0  0  0  0  0  0  0  0  0  0
   11.4650  -20.4150  -19.7450 C   0  0  0  0  0  0  0  0  0  0  0  0
   10.1870  -19.6400  -19.8400 C   0  0  0  0  0  0  0  0  0  0  0  0
   10.1350  -18.6430  -20.8180 C   0  0  0  0  0  0  0  0  0  0  0  0
    8.9730  -17.9150  -21.0010 C   0  0  0  0  0  0  0  0  0  0  0  0
    7.8790  -18.1210  -20.1800 C   0  0  0  0  0  0  0  0  0  0  0  0
    6.6210  -17.2570  -20.4290 C   0  0  0  0  0  0  0  0  0  0  0  0
    7.9460  -19.0880  -19.1750 C   0  0  0  0  0  0  0  0  0  0  0  0
    9.1030  -19.8280  -18.9860 C   0  0  0  0  0  0  0  0  0  0  0  0
   11.7530  -22.4550  -18.0800 S   0  0  0  0  0  0  0  0  0  0  0  0
   13.2540  -23.1460  -18.7230 C   0  0  0  0  0  0  0  0  0  0  0  0
   13.3330  -23.4130  -20.0920 C   0  0  0  0  0  0  0  0  0  0  0  0
   14.5120  -23.9520  -20.6350 C   0  0  0  0  0  0  0  0  0  0  0  0
   15.5610  -24.2390  -19.7680 C   0  0  0  0  0  0  0  0  0  0  0  0
   16.8530  -24.7890  -20.3680 C   0  0  0  0  0  0  0  0  0  0  0  0
   17.1470  -24.4690  -21.5110 O   0  0  0  0  0  0  0  0  0  0  0  0
   17.6640  -25.5970  -19.6980 N   0  0  0  0  0  0  0  0  0  0  0  0
   15.4810  -23.9470  -18.4130 C   0  0  0  0  0  0  0  0  0  0  0  0
   14.3050  -23.4120  -17.8350 C   0  0  0  0  0  0  0  0  0  0  0  0
   10.6580  -22.9630  -18.8910 O   0  0  0  0  0  0  0  0  0  0  0  0
   11.7310  -22.6690  -16.6410 O   0  0  0  0  0  0  0  0  0  0  0  0
    6.9750  -13.3560  -14.8400 O   0  0  0  0  0  0  0  0  0  0  0  0
   17.0300  -23.6700  -15.1400 F   0  0  0  0  0  0  0  0  0  0  0  0
   17.5820  -22.7700  -13.1700 F   0  0  0  0  0  0  0  0  0  0  0  0
   15.8320  -24.1530  -13.4220 F   0  0  0  0  0  0  0  0  0  0  0  0
    6.6580  -16.5660  -21.5710 F   0  0  0  0  0  0  0  0  0  0  0  0
    5.5870  -18.1730  -20.4650 F   0  0  0  0  0  0  0  0  0  0  0  0
    6.4030  -16.4320  -19.3760 F   0  0  0  0  0  0  0  0  0  0  0  0
  1  2  1  0
  2  3  1  0
  3  4  2  0
  4  5  1  0
  5  6  2  0
  6  7  1  0
  7  8  2  0
  3  8  1  0
  6  9  1  0
  9 10  2  0
  9 11  2  0
  9 12  1  0
 12 13  1  0
 13 14  1  0
 14 15  2  0
 15 16  1  0
 16 17  2  0
 17 18  1  0
 17 19  1  0
 14 20  1  0
 19 20  2  0
 12 21  1  0
 21 22  1  0
 22 23  1  0
 23 24  1  0
 24 25  1  0
 21 25  1  0
 25 26  1  0
 26 27  1  0
 27 28  1  0
 28 29  2  0
 29 30  1  0
 30 31  2  0
 31 32  1  0
 31 33  1  0
 28 34  1  0
 33 34  2  0
 26 35  1  0
 35 36  1  0
 36 37  2  0
 37 38  1  0
 38 39  2  0
 39 40  1  0
 40 41  2  0
 40 42  1  0
 39 43  1  0
 36 44  1  0
 43 44  2  0
 35 45  2  0
 35 46  2  0
  2 47  2  0
 18 48  1  0
 18 49  1  0
 18 50  1  0
 32 51  1  0
 32 52  1  0
 32 53  1  0
M  END
$$$$
