
     RDKit          3D

 39 43  0  0  0  0  0  0  0  0999 V2000
   -6.6948   -1.4722    0.2930 C   0  0  0  0  0  0  0  0  0  0  0  0
    6.8230   -0.6832    0.6795 C   0  0  0  0  0  0  0  0  0  0  0  0
   -0.6851    4.2385   -0.0810 C   0  0  0  0  0  0  0  0  0  0  0  0
    0.3560    3.0626   -3.0618 C   0  0  0  0  0  0  0  0  0  0  0  0
   -5.8207   -2.3885    0.8871 C   0  0  0  0  0  0  0  0  0  0  0  0
   -6.1861   -0.3954   -0.4385 C   0  0  0  0  0  0  0  0  0  0  0  0
    6.2187    0.5671    0.5198 C   0  0  0  0  0  0  0  0  0  0  0  0
    6.0354   -1.8216    0.8724 C   0  0  0  0  0  0  0  0  0  0  0  0
   -1.9952    3.7889   -0.2545 C   0  0  0  0  0  0  0  0  0  0  0  0
    0.1864    3.5402    0.7587 C   0  0  0  0  0  0  0  0  0  0  0  0
   -0.3138    1.8614   -3.3059 C   0  0  0  0  0  0  0  0  0  0  0  0
    1.6223    3.0482   -2.4705 C   0  0  0  0  0  0  0  0  0  0  0  0
   -4.4375   -2.2194    0.7663 C   0  0  0  0  0  0  0  0  0  0  0  0
   -4.8030   -0.2285   -0.5702 C   0  0  0  0  0  0  0  0  0  0  0  0
    4.8235    0.6805    0.5458 C   0  0  0  0  0  0  0  0  0  0  0  0
    4.6431   -1.7153    0.8914 C   0  0  0  0  0  0  0  0  0  0  0  0
   -2.4379    2.6432    0.4140 C   0  0  0  0  0  0  0  0  0  0  0  0
   -0.2554    2.3966    1.4314 C   0  0  0  0  0  0  0  0  0  0  0  0
    0.2802    0.6464   -2.9598 C   0  0  0  0  0  0  0  0  0  0  0  0
    2.2164    1.8321   -2.1176 C   0  0  0  0  0  0  0  0  0  0  0  0
   -0.0657   -2.5212    2.0459 C   0  0  0  0  0  0  0  0  0  0  0  0
    0.2425   -3.1247   -0.1945 C   0  0  0  0  0  0  0  0  0  0  0  0
   -2.4280   -0.9731   -0.1083 C   0  0  0  0  0  0  0  0  0  0  0  0
    2.5183   -0.3637    0.7296 C   0  0  0  0  0  0  0  0  0  0  0  0
   -3.9185   -1.1300    0.0472 C   0  0  0  0  0  0  0  0  0  0  0  0
    4.0234   -0.4659    0.7062 C   0  0  0  0  0  0  0  0  0  0  0  0
   -1.5689    1.9373    1.2585 C   0  0  0  0  0  0  0  0  0  0  0  0
    1.5451    0.6244   -2.3517 C   0  0  0  0  0  0  0  0  0  0  0  0
   -0.2693   -1.2459    1.2492 C   0  0  1  0  0  0  0  0  0  0  0  0
    0.4303   -1.5999   -0.0959 C   0  0  1  0  0  0  0  0  0  0  0  0
   -0.1991   -3.6324    1.1101 N   0  0  0  0  0  0  0  0  0  0  0  0
   -1.7444   -0.9644    1.2048 N   0  0  0  0  0  0  0  0  0  0  0  0
    1.8992   -1.3217   -0.2135 N   0  0  0  0  0  0  0  0  0  0  0  0
   -3.6168    0.5949    2.3266 O   0  0  0  0  0  0  0  0  0  0  0  0
   -1.4774    0.4348    3.4616 O   0  0  0  0  0  0  0  0  0  0  0  0
    3.7702   -0.8330   -2.0897 O   0  0  0  0  0  0  0  0  0  0  0  0
    1.7580   -1.9942   -2.7883 O   0  0  0  0  0  0  0  0  0  0  0  0
   -2.1319    0.4944    2.1084 S   0  0  0  0  0  6  0  0  0  0  0  0
    2.2827   -0.9132   -1.8840 S   0  0  0  0  0  6  0  0  0  0  0  0
  1  5  2  0
  1  6  1  0
  2  7  2  0
  2  8  1  0
  3  9  2  0
  3 10  1  0
  4 11  2  0
  4 12  1  0
  5 13  1  0
  6 14  2  0
  7 15  1  0
  8 16  2  0
  9 17  1  0
 10 18  2  0
 11 19  1  0
 12 20  2  0
 13 25  2  0
 14 25  1  0
 15 26  2  0
 16 26  1  0
 17 27  2  0
 18 27  1  0
 19 28  2  0
 20 28  1  0
 21 29  1  0
 21 31  1  0
 22 30  1  0
 22 31  1  0
 23 25  1  0
 23 32  1  0
 24 26  1  0
 24 33  1  0
 27 38  1  0
 28 39  1  0
 29 30  1  0
 29 32  1  6
 30 33  1  1
 32 38  1  0
 33 39  1  0
 34 38  2  0
 35 38  2  0
 36 39  2  0
 37 39  2  0
M  END
$$$$
