
     RDKit          3D

 28 30  0  0  0  0  0  0  0  0999 V2000
    1.8931    3.2905    0.0798 C   0  0  0  0  0  0  0  0  0  0  0  0
   -5.7199    0.5539   -0.0508 C   0  0  0  0  0  0  0  0  0  0  0  0
   -5.5064   -1.1177   -1.7707 C   0  0  0  0  0  0  0  0  0  0  0  0
    1.7779    2.2352    1.1742 C   0  0  0  0  0  0  0  0  0  0  0  0
   -2.2231   -1.8703   -0.6610 C   0  0  0  0  0  0  0  0  0  0  0  0
   -0.9039   -1.4562   -0.9175 C   0  0  0  0  0  0  0  0  0  0  0  0
    4.4324    0.1494   -1.4085 C   0  0  0  0  0  0  0  0  0  0  0  0
    3.6159   -0.7120    0.7012 C   0  0  0  0  0  0  0  0  0  0  0  0
   -2.4455   -0.1733    1.0889 C   0  0  0  0  0  0  0  0  0  0  0  0
    3.3550   -0.2017   -0.5813 C   0  0  0  0  0  0  0  0  0  0  0  0
   -2.9976   -1.2327    0.3390 C   0  0  0  0  0  0  0  0  0  0  0  0
   -0.3933   -0.4033   -0.1594 C   0  0  0  0  0  0  0  0  0  0  0  0
    5.7482    0.0196   -0.9537 C   0  0  0  0  0  0  0  0  0  0  0  0
    4.9299   -0.8437    1.1635 C   0  0  0  0  0  0  0  0  0  0  0  0
    0.7442    1.2056    0.8207 C   0  0  0  0  0  0  0  0  0  0  0  0
   -1.1376    0.2140    0.8105 C   0  0  0  0  0  0  0  0  0  0  0  0
    0.8405    0.2135   -0.1630 C   0  0  0  0  0  0  0  0  0  0  0  0
    1.9664   -0.0693   -1.0741 C   0  0  0  0  0  0  0  0  0  0  0  0
    6.0066   -0.4744    0.3333 C   0  0  0  0  0  0  0  0  0  0  0  0
    7.1872    0.5269   -2.1092 Br  0  0  0  0  0  0  0  0  0  0  0  0
    5.2012   -1.5334    2.9307 Br  0  0  0  0  0  0  0  0  0  0  0  0
   -5.7965   -0.8811   -0.3511 N   0  0  0  0  0  0  0  0  0  0  0  0
    1.7295   -0.2142   -2.3037 O   0  0  0  0  0  0  0  0  0  0  0  0
    7.3307   -0.5898    0.7608 O   0  0  0  0  0  0  0  0  0  0  0  0
   -4.9854   -1.5392    2.0917 O   0  0  0  0  0  0  0  0  0  0  0  0
   -4.7693   -3.2277    0.3543 O   0  0  0  0  0  0  0  0  0  0  0  0
   -0.4505    1.1719    1.3840 O   0  0  0  0  0  0  0  0  0  0  0  0
   -4.6555   -1.7560    0.6408 S   0  0  0  0  0  6  0  0  0  0  0  0
  1  4  1  0
  2 22  1  0
  3 22  1  0
  4 15  1  0
  5  6  2  0
  5 11  1  0
  6 12  1  0
  7 10  2  0
  7 13  1  0
  8 10  1  0
  8 14  2  0
  9 11  2  0
  9 16  1  0
 10 18  1  0
 11 28  1  0
 12 16  2  0
 12 17  1  0
 13 19  2  0
 13 20  1  0
 14 19  1  0
 14 21  1  0
 15 17  2  0
 15 27  1  0
 16 27  1  0
 17 18  1  0
 18 23  2  0
 19 24  1  0
 22 28  1  0
 25 28  2  0
 26 28  2  0
M  END
$$$$
