
     RDKit          3D

 28 31  0  0  0  0  0  0  0  0999 V2000
    6.2960   -2.5676   -0.1879 C   0  0  0  0  0  0  0  0  0  0  0  0
    7.1273   -2.2444    1.0430 C   0  0  0  0  0  0  0  0  0  0  0  0
    3.1608    3.5093   -0.9200 C   0  0  0  0  0  0  0  0  0  0  0  0
    1.9021    2.9322   -0.7395 C   0  0  0  0  0  0  0  0  0  0  0  0
    5.1977   -1.5088   -0.2603 C   0  0  0  0  0  0  0  0  0  0  0  0
    6.9227   -0.7626    1.2880 C   0  0  0  0  0  0  0  0  0  0  0  0
    4.3131    2.8051   -0.5652 C   0  0  0  0  0  0  0  0  0  0  0  0
   -5.5283    1.2305   -1.2771 C   0  0  0  0  0  0  0  0  0  0  0  0
   -3.2992   -1.1414    0.5033 C   0  0  0  0  0  0  0  0  0  0  0  0
   -6.7819    0.6881   -0.9835 C   0  0  0  0  0  0  0  0  0  0  0  0
   -2.0451   -0.5992    0.2105 C   0  0  0  0  0  0  0  0  0  0  0  0
   -5.7272   -1.0732    0.3066 C   0  0  0  0  0  0  0  0  0  0  0  0
   -3.1009    1.1658   -1.0732 C   0  0  0  0  0  0  0  0  0  0  0  0
    2.9487    0.9433    0.1675 C   0  0  0  0  0  0  0  0  0  0  0  0
   -4.4644   -0.5340    0.0160 C   0  0  0  0  0  0  0  0  0  0  0  0
   -4.3637    0.6275   -0.7823 C   0  0  0  0  0  0  0  0  0  0  0  0
   -6.8952   -0.4649   -0.1883 C   0  0  0  0  0  0  0  0  0  0  0  0
   -1.9327    0.5652   -0.5707 C   0  0  0  0  0  0  0  0  0  0  0  0
    1.7875    1.6347   -0.2115 C   0  0  0  0  0  0  0  0  0  0  0  0
    5.5013   -0.4746    0.8289 C   0  0  0  0  0  0  0  0  0  0  0  0
    4.2206    1.5207   -0.0181 C   0  0  0  0  0  0  0  0  0  0  0  0
   -8.2333   -1.0331    0.1133 C   0  0  0  0  0  0  0  0  0  0  0  0
   -0.6092    1.1497   -0.8956 C   0  0  0  0  0  0  0  0  0  0  0  0
   -9.2647   -1.0099   -0.8769 N   0  0  0  0  0  0  0  0  0  0  0  0
   -8.4925   -1.5481    1.2752 N   0  0  0  0  0  0  0  0  0  0  0  0
    0.5033    1.0277    0.0112 N   0  0  0  0  0  0  0  0  0  0  0  0
   -0.4638    1.7562   -1.9922 O   0  0  0  0  0  0  0  0  0  0  0  0
    5.4110    0.8616    0.3286 O   0  0  0  0  0  0  0  0  0  0  0  0
  1  2  1  0
  1  5  1  0
  2  6  1  0
  3  4  2  0
  3  7  1  0
  4 19  1  0
  5 20  1  0
  6 20  1  0
  7 21  2  0
  8 10  2  0
  8 16  1  0
  9 11  1  0
  9 15  2  0
 10 17  1  0
 11 18  2  0
 12 15  1  0
 12 17  2  0
 13 16  2  0
 13 18  1  0
 14 19  2  0
 14 21  1  0
 15 16  1  0
 17 22  1  0
 18 23  1  0
 19 26  1  0
 20 28  1  0
 21 28  1  0
 22 24  1  0
 22 25  2  3
 23 26  1  0
 23 27  2  0
M  END
$$$$
