1GJA_135_B_251_
     RDKit          3D

 32 33  0  1  0  0  0  0  0  0999 V2000
   19.2961   18.7285   33.8623 C   0  0  0  0  0  0  0  0  0  0  0  0
   18.8074   17.4761   33.4561 C   0  0  0  0  0  0  0  0  0  0  0  0
   19.6408   16.3916   33.2826 C   0  0  0  0  0  0  0  0  0  0  0  0
   20.9873   16.5482   33.5135 C   0  0  0  0  0  0  0  0  0  0  0  0
   21.5356   17.7464   33.9093 C   0  0  0  0  0  0  0  0  0  0  0  0
   20.6868   18.8346   34.0780 C   0  0  0  0  0  0  0  0  0  0  0  0
   18.4384   19.8207   34.0448 C   0  0  0  0  0  0  0  0  0  0  0  0
   18.9110   20.9260   34.5595 N   0  0  0  0  0  0  0  0  0  0  0  0
   21.6765   15.4419   33.3590 N   0  0  0  0  0  0  0  0  0  0  0  0
   22.9714   15.3348   33.1571 C   0  0  0  0  0  0  0  0  0  0  0  0
   23.7581   16.2692   33.0690 O   0  0  0  0  0  0  0  0  0  0  0  0
   23.3799   13.9733   33.0266 C   0  0  0  0  0  0  0  0  0  0  0  0
   24.6928   13.7296   32.5886 C   0  0  0  0  0  0  0  0  0  0  0  0
   25.1749   12.4469   32.3958 C   0  0  0  0  0  0  0  0  0  0  0  0
   24.3884   11.3458   32.6812 C   0  0  0  0  0  0  0  0  0  0  0  0
   23.0891   11.5307   33.1184 C   0  0  0  0  0  0  0  0  0  0  0  0
   22.5772   12.8133   33.3162 C   0  0  0  0  0  0  0  0  0  0  0  0
   21.2668   12.8358   33.7790 O   0  0  0  0  0  0  0  0  0  0  0  0
   17.7527   17.3438   33.2801 H   0  0  0  0  0  0  0  0  0  0  0  0
   19.2389   15.4383   32.9659 H   0  0  0  0  0  0  0  0  0  0  0  0
   22.5894   17.8709   34.0920 H   0  0  0  0  0  0  0  0  0  0  0  0
   21.1214   19.7738   34.3888 H   0  0  0  0  0  0  0  0  0  0  0  0
   19.8815   20.9588   34.8471 H   0  0  0  0  0  0  0  0  0  0  0  0
   18.3729   21.7386   34.7140 H   0  0  0  0  0  0  0  0  0  0  0  0
   16.8028   18.8732   33.3195 H   0  0  0  0  0  0  0  0  0  0  0  0
   21.1691   14.6070   33.3935 H   0  0  0  0  0  0  0  0  0  0  0  0
   25.3431   14.5626   32.3570 H   0  0  0  0  0  0  0  0  0  0  0  0
   26.1919   12.3072   32.0542 H   0  0  0  0  0  0  0  0  0  0  0  0
   24.7804   10.3544   32.5259 H   0  0  0  0  0  0  0  0  0  0  0  0
   22.4678   10.6758   33.3342 H   0  0  0  0  0  0  0  0  0  0  0  0
   16.5439   20.4801   33.8244 H   0  0  0  0  0  0  0  0  0  0  0  0
   17.1811   19.7335   33.7094 N   0  0  0  0  0  0  0  0  0  0  0  0
  1  2  2  0
  2  3  1  0
  3  4  2  0
  4  5  1  0
  1  6  1  0
  5  6  2  0
  1  7  1  0
  7  8  1  0
  4  9  1  0
  9 10  1  0
 10 11  2  0
 10 12  1  0
 12 13  2  0
 13 14  1  0
 14 15  2  0
 15 16  1  0
 12 17  1  0
 16 17  2  0
 17 18  1  0
  2 19  1  0
  3 20  1  0
  5 21  1  0
  6 22  1  0
  8 23  1  0
  8 24  1  0
  9 26  1  0
 13 27  1  0
 14 28  1  0
 15 29  1  0
 16 30  1  0
 32  7  2  0
 32 25  1  0
 32 31  1  0
M  CHG  1  32   1
V   32 [N&+]
M  STY  1   1 DAT
M  SAL   1  1  32
M  SED   1 [N&+]
M  END
$$$$
