
     RDKit          3D

 19 20  0  0  0  0  0  0  0  0999 V2000
   -5.1415    1.1531   -0.6529 C   0  0  0  0  0  0  0  0  0  0  0  0
   -5.7028   -0.1115   -0.4703 C   0  0  0  0  0  0  0  0  0  0  0  0
   -3.7797    1.3560   -0.4154 C   0  0  0  0  0  0  0  0  0  0  0  0
   -4.9062   -1.1740   -0.0383 C   0  0  0  0  0  0  0  0  0  0  0  0
    3.0763   -1.1847    0.3293 C   0  0  0  0  0  0  0  0  0  0  0  0
    2.8739    1.1906   -0.0936 C   0  0  0  0  0  0  0  0  0  0  0  0
    1.6933   -1.3266    0.1852 C   0  0  0  0  0  0  0  0  0  0  0  0
    1.4904    1.0474   -0.2348 C   0  0  0  0  0  0  0  0  0  0  0  0
    3.6810    0.0778    0.1975 C   0  0  0  0  0  0  0  0  0  0  0  0
    0.8862   -0.2111   -0.0757 C   0  0  0  0  0  0  0  0  0  0  0  0
   -2.9613    0.2907   -0.0011 C   0  0  0  0  0  0  0  0  0  0  0  0
   -3.5388   -0.9800    0.2098 C   0  0  0  0  0  0  0  0  0  0  0  0
    5.1500    0.2361    0.3434 C   0  0  0  0  0  0  0  0  0  0  0  0
   -1.5220    0.5372    0.2318 C   0  0  0  0  0  0  0  0  0  0  0  0
    5.8592    1.1668   -0.4785 N   0  0  0  0  0  0  0  0  0  0  0  0
    5.8111   -0.4559    1.2189 N   0  0  0  0  0  0  0  0  0  0  0  0
   -0.5301   -0.3914   -0.2426 N   0  0  0  0  0  0  0  0  0  0  0  0
   -2.7677   -2.0379    0.6913 O   0  0  0  0  0  0  0  0  0  0  0  0
   -1.1748    1.5800    0.8501 O   0  0  0  0  0  0  0  0  0  0  0  0
  1  2  2  0
  1  3  1  0
  2  4  1  0
  3 11  2  0
  4 12  2  0
  5  7  2  0
  5  9  1  0
  6  8  1  0
  6  9  2  0
  7 10  1  0
  8 10  2  0
  9 13  1  0
 10 17  1  0
 11 12  1  0
 11 14  1  0
 12 18  1  0
 13 15  1  0
 13 16  2  3
 14 17  1  0
 14 19  2  0
M  END
$$$$
