3RXP_SW3_A_7_
     RDKit          3D

  9  9  0  0  0  0  0  0  0  0999 V2000
   16.0968   66.6467   23.4810 C   0  0  0  0  0  0  0  0  0  0  0  0
   20.6752   67.0214   27.1645 N   0  0  0  0  0  0  0  0  0  0  0  0
   17.3332   67.1845   24.1523 C   0  0  0  0  0  0  0  0  0  0  0  0
   19.2481   68.1148   24.7777 N   0  0  0  0  0  0  0  0  0  0  0  0
   17.4922   66.9361   25.5030 C   0  0  0  0  0  0  0  0  0  0  0  0
   18.3694   67.8794   23.7182 N   0  0  0  0  0  0  0  0  0  0  0  0
   18.7017   67.5273   25.8731 C   0  0  0  0  0  0  0  0  0  0  0  0
   19.3259   67.5361   27.2486 C   0  0  0  0  0  0  0  0  0  0  0  0
   18.7443   68.4297   22.3913 C   0  0  0  0  0  0  0  0  0  0  0  0
  1  3  1  0
  3  5  2  0
  3  6  1  0
  4  6  1  0
  4  7  2  0
  5  7  1  0
  2  8  1  0
  7  8  1  0
  6  9  1  0
M  END
$$$$
