3GY4_PBZ_A_1_
     RDKit          3D

 10 10  0  0  0  0  0  0  0  0999 V2000
   -5.0242    9.8481   19.7845 N   0  0  0  0  0  0  0  0  0  0  0  0
   -3.0167   10.7280   19.1390 N   0  0  0  0  0  0  0  0  0  0  0  0
   -3.7241    9.6852   19.5808 C   0  0  0  0  0  0  0  0  0  0  0  0
   -3.0870    8.3433   19.8288 C   0  0  0  0  0  0  0  0  0  0  0  0
   -1.2444    6.8172   19.4689 C   0  0  0  0  0  0  0  0  0  0  0  0
   -1.8408    8.0580   19.2693 C   0  0  0  0  0  0  0  0  0  0  0  0
   -3.7320    7.3772   20.6052 C   0  0  0  0  0  0  0  0  0  0  0  0
   -3.1234    6.1328   20.8068 C   0  0  0  0  0  0  0  0  0  0  0  0
   -1.8877    5.8526   20.2331 C   0  0  0  0  0  0  0  0  0  0  0  0
   -1.2933    4.6457   20.4292 N   0  0  0  0  0  0  0  0  0  0  0  0
  1  3  1  0
  2  3  2  0
  3  4  1  0
  4  6  2  0
  5  6  1  0
  4  7  1  0
  7  8  2  0
  5  9  2  0
  8  9  1  0
  9 10  1  0
M  CHG  1   2   1
M  END
$$$$
