3RXF_4AP_A_9_
     RDKit          3D

  7  7  0  0  0  0  0  0  0  0999 V2000
   13.7318   -3.9470   23.0143 N   0  0  0  0  0  0  0  0  0  0  0  0
   14.6980   -3.6586   23.9051 C   0  0  0  0  0  0  0  0  0  0  0  0
   14.3995   -3.5582   25.2632 C   0  0  0  0  0  0  0  0  0  0  0  0
   13.0930   -3.7554   25.6969 C   0  0  0  0  0  0  0  0  0  0  0  0
   12.1153   -4.0558   24.7539 C   0  0  0  0  0  0  0  0  0  0  0  0
   12.4632   -4.1445   23.4085 C   0  0  0  0  0  0  0  0  0  0  0  0
   12.7712   -3.6634   27.0105 N   0  0  0  0  0  0  0  0  0  0  0  0
  1  2  2  0
  2  3  1  0
  3  4  2  0
  4  5  1  0
  1  6  1  0
  5  6  2  0
  4  7  1  0
M  CHG  1   1   1
M  END
$$$$
