
     RDKit          3D

 20 20  0  0  0  0  0  0  0  0999 V2000
    5.2474   -0.0588    3.3063 C   0  0  0  0  0  0  0  0  0  0  0  0
    6.1796    0.2651    2.1410 C   0  0  0  0  0  0  0  0  0  0  0  0
    5.5886   -0.1138    0.7728 C   0  0  0  0  0  0  0  0  0  0  0  0
    4.3596    0.7308    0.3751 C   0  0  0  0  0  0  0  0  0  0  0  0
    3.0390   -0.0222    0.5980 C   0  0  0  0  0  0  0  0  0  0  0  0
    1.8356    0.8552    0.2221 C   0  0  0  0  0  0  0  0  0  0  0  0
    0.4902    0.1909    0.5538 C   0  0  0  0  0  0  0  0  0  0  0  0
    0.1600   -0.9793   -0.3875 C   0  0  0  0  0  0  0  0  0  0  0  0
   -1.2182   -1.5808   -0.0903 C   0  0  0  0  0  0  0  0  0  0  0  0
   -3.0574   -0.2981    0.8661 C   0  0  0  0  0  0  0  0  0  0  0  0
   -2.4333   -0.9383   -2.8294 C   0  0  0  0  0  0  0  0  0  0  0  0
   -3.1844   -0.9854   -1.4789 C   0  0  2  0  0  0  0  0  0  0  0  0
   -3.9148    0.9736    0.6997 C   0  0  1  0  0  0  0  0  0  0  0  0
   -4.4835   -0.1122   -1.5396 C   0  0  2  0  0  0  0  0  0  0  0  0
   -4.3227    1.2172   -0.7722 C   0  0  2  0  0  0  0  0  0  0  0  0
   -2.2842   -0.5803   -0.3608 N   0  0  0  0  0  0  0  0  0  0  0  0
   -1.8874    0.3329   -3.0484 O   0  0  0  0  0  0  0  0  0  0  0  0
   -5.0703    0.8710    1.4920 O   0  0  0  0  0  0  0  0  0  0  0  0
   -5.5554   -0.8427   -0.9950 O   0  0  0  0  0  0  0  0  0  0  0  0
   -3.3584    2.0118   -1.4151 O   0  0  0  0  0  0  0  0  0  0  0  0
  1  2  1  0
  2  3  1  0
  3  4  1  0
  4  5  1  0
  5  6  1  0
  6  7  1  0
  7  8  1  0
  8  9  1  0
  9 16  1  0
 10 13  1  0
 10 16  1  0
 12 11  1  6
 11 17  1  0
 12 14  1  0
 12 16  1  0
 13 15  1  0
 13 18  1  1
 14 15  1  0
 14 19  1  1
 15 20  1  6
M  END
$$$$
