1N1M_A3M_B_955_
     RDKit          3D

 12 12  0  0  0  0  0  0  0  0999 V2000
  112.2788  -76.4188  -56.5534 C   0  0  0  0  0  0  0  0  0  0  0  0
  111.6124  -76.2036  -55.1164 C   0  0  0  0  0  0  0  0  0  0  0  0
  111.3023  -77.5629  -54.6419 N   0  0  0  0  0  0  0  0  0  0  0  0
  111.0082  -78.3175  -55.8704 C   0  0  0  0  0  0  0  0  0  0  0  0
  112.2459  -77.9997  -56.7328 C   0  0  0  0  0  0  0  0  0  0  0  0
  110.2847  -77.5980  -53.5853 C   0  0  0  0  0  0  0  0  0  0  0  0
  110.3555  -76.9038  -52.2994 C   0  0  0  0  0  0  0  0  0  0  0  0
  110.9135  -77.6371  -51.1289 C   0  0  0  0  0  0  0  0  0  0  0  0
  112.3067  -78.0608  -51.2922 C   0  0  0  0  0  0  0  0  0  0  0  0
  109.1405  -78.3503  -53.8047 O   0  0  0  0  0  0  0  0  0  0  0  0
  109.0233  -76.3812  -51.8861 N   0  0  0  0  0  0  0  0  0  0  0  0
  110.9029  -76.6418  -49.7616 C   0  0  0  0  0  0  0  0  0  0  0  0
  1  2  1  0
  2  3  1  0
  3  4  1  0
  1  5  1  0
  4  5  1  0
  3  6  1  0
  6  7  1  0
  7  8  1  0
  8  9  1  0
  6 10  2  0
  7 11  1  0
  8 12  1  0
M  END
$$$$
