3ADS_IMN_A_2_
     RDKit          3D

 25 27  0  0  0  0  0  0  0  0999 V2000
   21.1420   65.0620   16.3860 C   0  0  0  0  0  0  0  0  0  0  0  0
   19.9050   64.9880   17.0960 C   0  0  0  0  0  0  0  0  0  0  0  0
   19.0150   63.8980   16.8790 C   0  0  0  0  0  0  0  0  0  0  0  0
   19.3480   62.8860   15.9600 C   0  0  0  0  0  0  0  0  0  0  0  0
   20.5680   62.9450   15.2570 C   0  0  0  0  0  0  0  0  0  0  0  0
   21.4570   64.0110   15.4620 C   0  0  0  0  0  0  0  0  0  0  0  0
   17.2510   61.9790   15.0400 C   0  0  0  0  0  0  0  0  0  0  0  0
   19.8450   66.1630   17.9600 C   0  0  0  0  0  0  0  0  0  0  0  0
   20.9750   66.8840   17.7610 C   0  0  0  0  0  0  0  0  0  0  0  0
   23.0430   66.7240   16.3740 C   0  0  0  0  0  0  0  0  0  0  0  0
   23.4310   66.9300   14.9080 C   0  0  0  0  0  0  0  0  0  0  0  0
   24.7450   67.4010   14.5890 C   0  0  0  0  0  0  0  0  0  0  0  0
   25.1300   67.5830   13.2460 C   0  0  0  0  0  0  0  0  0  0  0  0
   24.2230   67.3050   12.2020 C   0  0  0  0  0  0  0  0  0  0  0  0
   22.9280   66.8490   12.4910 C   0  0  0  0  0  0  0  0  0  0  0  0
   22.5290   66.6620   13.8220 C   0  0  0  0  0  0  0  0  0  0  0  0
   21.2930   68.1850   18.4780 C   0  0  0  0  0  0  0  0  0  0  0  0
   18.6950   66.4810   18.9050 C   0  0  0  0  0  0  0  0  0  0  0  0
   18.7710   65.6410   20.1820 C   0  0  0  0  0  0  0  0  0  0  0  0
   21.7950   66.2500   16.8090 N   0  0  0  0  0  0  0  0  0  0  0  0
   18.4920   61.8550   15.7500 O   0  0  0  0  0  0  0  0  0  0  0  0
   23.8820   66.9830   17.2300 O   0  0  0  0  0  0  0  0  0  0  0  0
   19.6670   64.8480   20.3650 O   0  0  0  0  0  0  0  0  0  0  0  0
   17.8340   65.7780   21.1170 O   0  0  0  0  0  0  0  0  0  0  0  0
   24.7060   67.5240   10.5590 Cl  0  0  0  0  0  0  0  0  0  0  0  0
  1  2  1  0
  2  3  2  0
  3  4  1  0
  4  5  2  0
  1  6  2  0
  5  6  1  0
  2  8  1  0
  8  9  2  0
 10 11  1  0
 11 12  2  0
 12 13  1  0
 13 14  2  0
 14 15  1  0
 11 16  1  0
 15 16  2  0
  9 17  1  0
  8 18  1  0
 18 19  1  0
  1 20  1  0
  9 20  1  0
 10 20  1  0
  4 21  1  0
  7 21  1  0
 10 22  2  0
 19 23  2  0
 19 24  1  0
 14 25  1  0
M  END
$$$$
