
     RDKit          3D

 29 31  0  0  0  0  0  0  0  0999 V2000
   -6.0378    0.1419   -0.6599 C   0  0  0  0  0  0  0  0  0  0  0  0
   -4.0569   -2.3361   -0.7015 C   0  0  0  0  0  0  0  0  0  0  0  0
    1.2199   -0.1211    1.4555 C   0  0  0  0  0  0  0  0  0  0  0  0
   -5.2996   -0.4821    0.5242 C   0  0  0  0  0  0  0  0  0  0  0  0
   -1.8517    3.5553    0.6345 C   0  0  0  0  0  0  0  0  0  0  0  0
   -2.7176    3.2654    1.6888 C   0  0  0  0  0  0  0  0  0  0  0  0
   -1.1442    2.5281    0.0065 C   0  0  0  0  0  0  0  0  0  0  0  0
   -2.8833    1.9467    2.1156 C   0  0  0  0  0  0  0  0  0  0  0  0
    3.4906    1.3435   -1.0380 C   0  0  0  0  0  0  0  0  0  0  0  0
    4.7850    1.8693   -0.9054 C   0  0  0  0  0  0  0  0  0  0  0  0
   -0.4738    0.1268   -0.2650 C   0  0  0  0  0  0  0  0  0  0  0  0
    1.7930   -0.5008   -0.8702 C   0  0  0  0  0  0  0  0  0  0  0  0
    7.8132    0.0590   -0.0268 C   0  0  0  0  0  0  0  0  0  0  0  0
   -3.9218   -1.0552    0.1330 C   0  0  1  0  0  0  0  0  0  0  0  0
   -1.3016    1.1936    0.4197 C   0  0  0  0  0  0  0  0  0  0  0  0
    3.2342   -0.0366   -0.8166 C   0  0  0  0  0  0  0  0  0  0  0  0
   -2.1943    0.9015    1.4820 C   0  0  0  0  0  0  0  0  0  0  0  0
    5.8057    0.9978   -0.5535 C   0  0  0  0  0  0  0  0  0  0  0  0
    4.3201   -0.9069   -0.4920 C   0  0  0  0  0  0  0  0  0  0  0  0
    5.5868   -0.3267   -0.3553 C   0  0  0  0  0  0  0  0  0  0  0  0
   -2.3989   -0.4743    1.9807 C   0  0  0  0  0  0  0  0  0  0  0  0
    4.1783   -2.3674   -0.3232 C   0  0  0  0  0  0  0  0  0  0  0  0
   -3.1468   -1.3441    1.3514 N   0  0  0  0  0  4  0  0  0  0  0  0
    0.9588    0.2900    0.0612 N   0  0  0  0  0  0  0  0  0  0  0  0
   -1.7731   -0.8307    3.1746 O   0  0  0  0  0  0  0  0  0  0  0  0
    4.7891   -2.9560    0.6100 O   0  0  0  0  0  0  0  0  0  0  0  0
    3.4263   -3.1119   -1.2282 O   0  0  0  0  0  0  0  0  0  0  0  0
    7.1444    1.2815   -0.3632 O   0  0  0  0  0  0  0  0  0  0  0  0
    6.7858   -0.9405   -0.0367 O   0  0  0  0  0  0  0  0  0  0  0  0
  1  4  1  0
 14  2  1  1
  3 24  1  0
  4 14  1  0
  5  6  2  0
  5  7  1  0
  6  8  1  0
  7 15  2  0
  8 17  2  0
  9 10  2  0
  9 16  1  0
 10 18  1  0
 11 15  1  0
 11 24  1  0
 12 16  1  0
 12 24  1  0
 13 28  1  0
 13 29  1  0
 14 23  1  0
 15 17  1  0
 16 19  2  0
 17 21  1  0
 18 20  2  0
 18 28  1  0
 19 20  1  0
 19 22  1  0
 20 29  1  0
 21 23  2  3
 21 25  1  0
 22 26  2  0
 22 27  1  0
M  CHG  1  23   1
M  END
$$$$
