3QPP_PFW_A_999_
     RDKit          3D

 37 42  0  0  0  0  0  0  0  0999 V2000
   13.3440   16.3370   43.1300 C   0  0  0  0  0  0  0  0  0  0  0  0
   12.5170   17.2500   42.4480 C   0  0  0  0  0  0  0  0  0  0  0  0
   11.9910   18.3470   43.0870 C   0  0  0  0  0  0  0  0  0  0  0  0
   13.6090   16.5220   44.4870 C   0  0  0  0  0  0  0  0  0  0  0  0
   13.0600   17.6450   45.1520 C   0  0  0  0  0  0  0  0  0  0  0  0
   12.2500   18.5890   44.4550 C   0  0  0  0  0  0  0  0  0  0  0  0
   11.7260   19.7290   45.1680 C   0  0  0  0  0  0  0  0  0  0  0  0
   12.0130   19.8130   46.4680 N   0  0  0  0  0  0  0  0  0  0  0  0
   12.7880   18.9180   47.0730 C   0  0  0  0  0  0  0  0  0  0  0  0
   13.2930   17.8720   46.4570 N   0  0  0  0  0  0  0  0  0  0  0  0
   10.9600   20.7050   44.5330 N   0  0  0  0  0  0  0  0  0  0  0  0
   10.4520   21.7460   45.4610 C   0  0  0  0  0  0  0  0  0  0  0  0
    9.6970   22.8710   44.7100 C   0  0  0  0  0  0  0  0  0  0  0  0
   10.5130   23.4610   43.5380 C   0  0  0  0  0  0  0  0  0  0  0  0
   11.1370   22.3210   42.6890 C   0  0  0  0  0  0  0  0  0  0  0  0
   11.9090   21.4080   43.6400 C   0  0  0  0  0  0  0  0  0  0  0  0
   11.9990   22.7890   41.5220 C   0  0  0  0  0  0  0  0  0  0  0  0
   12.0320   22.0340   40.3500 C   0  0  0  0  0  0  0  0  0  0  0  0
   12.7970   22.4470   39.2680 C   0  0  0  0  0  0  0  0  0  0  0  0
   13.5470   23.6150   39.3470 C   0  0  0  0  0  0  0  0  0  0  0  0
   13.5180   24.3780   40.5030 C   0  0  0  0  0  0  0  0  0  0  0  0
   12.7550   23.9670   41.5930 C   0  0  0  0  0  0  0  0  0  0  0  0
   13.8080   15.2720   42.4170 O   0  0  0  0  0  0  0  0  0  0  0  0
   12.2970   17.0210   41.1120 O   0  0  0  0  0  0  0  0  0  0  0  0
   15.0430   14.7340   42.9090 C   0  0  0  0  0  0  0  0  0  0  0  0
   10.9870   17.3770   40.6780 C   0  0  0  0  0  0  0  0  0  0  0  0
   11.2640   17.8040   39.2400 C   0  0  0  0  0  0  0  0  0  0  0  0
   10.0790   18.0490   38.3350 C   0  0  0  0  0  0  0  0  0  0  0  0
    9.3810   17.0310   37.9040 N   0  0  0  0  0  0  0  0  0  0  0  0
    8.7350   19.5860   37.0920 C   0  0  0  0  0  0  0  0  0  0  0  0
    9.7850   19.3510   37.9440 C   0  0  0  0  0  0  0  0  0  0  0  0
    7.9690   18.4810   36.6440 C   0  0  0  0  0  0  0  0  0  0  0  0
    8.3280   17.1780   37.0990 C   0  0  0  0  0  0  0  0  0  0  0  0
    7.5920   16.0560   36.6790 C   0  0  0  0  0  0  0  0  0  0  0  0
    6.5460   16.2320   35.8270 C   0  0  0  0  0  0  0  0  0  0  0  0
    6.1710   17.5100   35.3820 C   0  0  0  0  0  0  0  0  0  0  0  0
    6.8640   18.6290   35.7720 C   0  0  0  0  0  0  0  0  0  0  0  0
  1  2  2  0
  2  3  1  0
  1  4  1  0
  4  5  2  0
  3  6  2  0
  5  6  1  0
  6  7  1  0
  7  8  2  0
  8  9  1  0
  5 10  1  0
  9 10  2  0
  7 11  1  0
 11 12  1  0
 12 13  1  0
 13 14  1  0
 14 15  1  0
 11 16  1  0
 15 16  1  0
 15 17  1  0
 17 18  2  0
 18 19  1  0
 19 20  2  0
 20 21  1  0
 17 22  1  0
 21 22  2  0
  1 23  1  0
  2 24  1  0
 23 25  1  0
 24 26  1  0
 26 27  1  0
 27 28  1  0
 28 29  2  0
 28 31  1  0
 30 31  2  0
 30 32  1  0
 29 33  1  0
 32 33  2  0
 33 34  1  0
 34 35  2  0
 35 36  1  0
 32 37  1  0
 36 37  2  0
M  END
$$$$
