
     RDKit          3D

 25 28  0  0  0  0  0  0  0  0999 V2000
    4.2829   -1.1766    3.4386 C   0  0  0  0  0  0  0  0  0  0  0  0
   -6.8879    1.1730   -1.5737 C   0  0  0  0  0  0  0  0  0  0  0  0
   -6.3480    2.1814   -0.7685 C   0  0  0  0  0  0  0  0  0  0  0  0
   -6.2268   -0.0528   -1.7050 C   0  0  0  0  0  0  0  0  0  0  0  0
   -5.1438    1.9703   -0.0892 C   0  0  0  0  0  0  0  0  0  0  0  0
   -4.3303   -1.4867   -1.1406 C   0  0  0  0  0  0  0  0  0  0  0  0
   -3.1293   -1.6714   -0.4528 C   0  0  0  0  0  0  0  0  0  0  0  0
   -1.3203   -0.7993    1.0752 C   0  0  0  0  0  0  0  0  0  0  0  0
   -0.1572   -0.3911    0.1760 C   0  0  0  0  0  0  0  0  0  0  0  0
    4.7480   -0.1781    0.6927 C   0  0  0  0  0  0  0  0  0  0  0  0
    2.5104    0.2179   -0.9518 C   0  0  0  0  0  0  0  0  0  0  0  0
    6.1781    0.5784   -1.1411 C   0  0  0  0  0  0  0  0  0  0  0  0
    5.1963    1.2190   -3.1965 C   0  0  0  0  0  0  0  0  0  0  0  0
   -5.0186   -0.2728   -1.0268 C   0  0  0  0  0  0  0  0  0  0  0  0
    4.9134    0.2930   -0.6155 C   0  0  0  0  0  0  0  0  0  0  0  0
   -2.6272   -0.6400    0.3548 C   0  0  0  0  0  0  0  0  0  0  0  0
   -4.4756    0.7469   -0.2133 C   0  0  0  0  0  0  0  0  0  0  0  0
    3.7908    0.4913   -1.4395 C   0  0  0  0  0  0  0  0  0  0  0  0
    3.4579   -0.4550    1.1879 C   0  0  0  0  0  0  0  0  0  0  0  0
    2.3368   -0.2565    0.3639 C   0  0  0  0  0  0  0  0  0  0  0  0
    6.2933    1.0338   -2.4159 N   0  0  0  0  0  0  0  0  0  0  0  0
    3.9574    0.9488   -2.7085 N   0  0  0  0  0  0  0  0  0  0  0  0
   -3.3040    0.5380    0.4451 N   0  0  0  0  0  0  0  0  0  0  0  0
    3.2477   -0.9286    2.4929 O   0  0  0  0  0  0  0  0  0  0  0  0
    1.0670   -0.5425    0.8899 O   0  0  0  0  0  0  0  0  0  0  0  0
  1 24  1  0
  2  3  2  0
  2  4  1  0
  3  5  1  0
  4 14  2  0
  5 17  2  0
  6  7  2  0
  6 14  1  0
  7 16  1  0
  8  9  1  0
  8 16  1  0
  9 25  1  0
 10 15  2  0
 10 19  1  0
 11 18  2  0
 11 20  1  0
 12 15  1  0
 12 21  2  0
 13 21  1  0
 13 22  2  0
 14 17  1  0
 15 18  1  0
 16 23  2  0
 17 23  1  0
 18 22  1  0
 19 20  2  0
 19 24  1  0
 20 25  1  0
M  END
$$$$
