
     RDKit          3D

 16 16  0  0  0  0  0  0  0  0999 V2000
   -3.9394   -1.0631   -1.2971 C   0  0  0  0  0  0  0  0  0  0  0  0
    0.9401    1.1099    1.2022 C   0  0  0  0  0  0  0  0  0  0  0  0
    0.5984   -1.0196    0.0967 C   0  0  0  0  0  0  0  0  0  0  0  0
    2.3224    0.9660    1.0504 C   0  0  0  0  0  0  0  0  0  0  0  0
    1.9808   -1.1622   -0.0544 C   0  0  0  0  0  0  0  0  0  0  0  0
   -1.4205    0.2810    0.8676 C   0  0  0  0  0  0  0  0  0  0  0  0
   -1.9908    0.9884   -0.3646 C   0  0  0  0  0  0  0  0  0  0  0  0
   -4.3249    0.2271   -0.6330 C   0  0  0  0  0  0  0  0  0  0  0  0
    0.0691    0.1115    0.7381 C   0  0  0  0  0  0  0  0  0  0  0  0
    2.8490   -0.1744    0.4291 C   0  0  0  0  0  0  0  0  0  0  0  0
    5.0523    0.3050   -1.3099 N   0  0  0  0  0  0  0  0  0  0  0  0
   -3.4446    1.1113   -0.2555 N   0  0  0  0  0  0  0  0  0  0  0  0
   -5.6775    0.4932   -0.4394 O   0  0  0  0  0  0  0  0  0  0  0  0
    4.9642   -1.8029    0.2861 O   0  0  0  0  0  0  0  0  0  0  0  0
    5.3086    0.3845    1.3182 O   0  0  0  0  0  0  0  0  0  0  0  0
    4.5883   -0.3487    0.2215 S   0  0  0  0  0  6  0  0  0  0  0  0
  1  8  1  0
  2  4  2  0
  2  9  1  0
  3  5  1  0
  3  9  2  0
  4 10  1  0
  5 10  2  0
  6  7  1  0
  6  9  1  0
  7 12  1  0
  8 12  2  3
  8 13  1  0
 10 16  1  0
 11 16  1  0
 14 16  2  0
 15 16  2  0
M  END
$$$$
