
     RDKit          3D

 10 10  0  0  0  0  0  0  0  0999 V2000
   -0.9586   -0.0622    0.6727 C   0  0  2  0  0  0  0  0  0  0  0  0
   -0.9145   -0.0011   -0.8672 C   0  0  2  0  0  0  0  0  0  0  0  0
    0.4983   -0.0096    1.1383 C   0  0  2  0  0  0  0  0  0  0  0  0
    0.4815    0.5323   -1.2385 C   0  0  1  0  0  0  0  0  0  0  0  0
    1.1742    0.8691    0.0900 C   0  0  2  0  0  0  0  0  0  0  0  0
   -1.6648   -1.2453    1.1745 N   0  0  0  0  0  0  0  0  0  0  0  0
   -1.9071    0.8651   -1.3539 O   0  0  0  0  0  0  0  0  0  0  0  0
    1.0823   -1.2898    1.1348 O   0  0  0  0  0  0  0  0  0  0  0  0
    1.1917   -0.4614   -1.9362 O   0  0  0  0  0  0  0  0  0  0  0  0
    2.5597    0.6439    0.0298 O   0  0  0  0  0  0  0  0  0  0  0  0
  1  2  1  0
  1  3  1  0
  1  6  1  6
  2  4  1  0
  2  7  1  1
  3  5  1  0
  3  8  1  6
  4  5  1  0
  4  9  1  1
  5 10  1  6
M  END
$$$$
