2F7P_2SK_A_5009_B
     RDKit          3D

 18 19  0  0  0  0  0  0  0  0999 V2000
   31.3020   66.1950    9.0630 C   0  0  0  0  0  0  0  0  0  0  0  0
   31.1040   64.8680    9.6610 N   0  0  0  0  0  0  0  0  0  0  0  0
   32.7860   66.5780    9.0790 C   0  0  0  0  0  0  0  0  0  0  0  0
   33.6320   65.5030    9.5100 O   0  0  0  0  0  0  0  0  0  0  0  0
   33.1520   67.0770    7.6940 C   0  0  0  0  0  0  0  0  0  0  0  0
   33.7860   66.0820    6.9070 O   0  0  0  0  0  0  0  0  0  0  0  0
   31.7850   67.3730    7.0690 C   0  0  0  0  0  0  0  0  0  0  0  0
   31.7250   67.5970    5.6690 O   0  0  0  0  0  0  0  0  0  0  0  0
   30.9320   66.2310    7.5900 C   0  0  0  0  0  0  0  0  0  0  0  0
   29.1720   66.3690    7.3850 S   0  0  0  0  0  0  0  0  0  0  0  0
   29.7680   64.2680    9.7680 C   0  0  0  0  0  0  0  0  0  0  0  0
   28.9780   64.5820   11.0560 C   0  0  0  0  0  0  0  0  0  0  0  0
   28.2240   65.7460   11.0990 C   0  0  0  0  0  0  0  0  0  0  0  0
   27.5150   66.0230   12.2820 C   0  0  0  0  0  0  0  0  0  0  0  0
   29.0130   63.7240   12.1650 C   0  0  0  0  0  0  0  0  0  0  0  0
   28.3120   64.0040   13.3530 C   0  0  0  0  0  0  0  0  0  0  0  0
   27.5400   65.1880   13.4060 C   0  0  0  0  0  0  0  0  0  0  0  0
   28.6130   66.2070    5.6830 C   0  0  0  0  0  0  0  0  0  0  0  0
  1  2  1  0
  1  3  1  0
  3  4  1  0
  3  5  1  0
  5  6  1  0
  5  7  1  0
  7  8  1  0
  1  9  1  0
  7  9  1  0
  9 10  1  0
  2 11  1  0
 11 12  1  0
 12 13  2  0
 13 14  1  0
 12 15  1  0
 15 16  2  0
 14 17  2  0
 16 17  1  0
 10 18  1  0
M  END
$$$$
