
     RDKit          3D

 18 19  0  0  0  0  0  0  0  0999 V2000
   -1.6277    0.9084   -2.1551 C   0  0  0  0  0  0  0  0  0  0  0  0
   -3.9135   -1.1022    1.5833 C   0  0  0  0  0  0  0  0  0  0  0  0
    4.6753    0.8690    0.3604 C   0  0  0  0  0  0  0  0  0  0  0  0
    4.3995    0.0771   -0.7559 C   0  0  0  0  0  0  0  0  0  0  0  0
   -3.0230    0.6299   -0.0385 C   0  0  0  0  0  0  0  0  0  0  0  0
    2.4861    0.3701    1.2587 C   0  0  0  0  0  0  0  0  0  0  0  0
   -0.4727    0.9996    0.0895 C   0  0  0  0  0  0  0  0  0  0  0  0
   -1.5065   -1.2107    0.8154 C   0  0  0  0  0  0  0  0  0  0  0  0
   -1.7744    1.3063   -0.6781 C   0  0  1  0  0  0  0  0  0  0  0  0
   -2.6882   -0.2858    1.1574 C   0  0  2  0  0  0  0  0  0  0  0  0
    3.7184    1.0196    1.3651 C   0  0  0  0  0  0  0  0  0  0  0  0
    2.1951   -0.4327    0.1425 C   0  0  0  0  0  0  0  0  0  0  0  0
    3.1621   -0.5737   -0.8825 C   0  0  0  0  0  0  0  0  0  0  0  0
    0.8961   -1.1391    0.0958 C   0  0  0  0  0  0  0  0  0  0  0  0
    4.0973    2.1047    2.8904 Br  0  0  0  0  0  0  0  0  0  0  0  0
    2.8937   -1.3293   -2.0716 N   0  0  0  0  0  0  0  0  0  0  0  0
   -0.3472   -0.4467    0.3305 N   0  0  0  0  0  0  0  0  0  0  0  0
    0.8870   -2.3837   -0.1092 O   0  0  0  0  0  0  0  0  0  0  0  0
  9  1  1  6
 10  2  1  6
  3  4  2  0
  3 11  1  0
  4 13  1  0
  5  9  1  0
  5 10  1  0
  6 11  2  0
  6 12  1  0
  7  9  1  0
  7 17  1  0
  8 10  1  0
  8 17  1  0
 11 15  1  0
 12 13  2  0
 12 14  1  0
 13 16  1  0
 14 17  1  0
 14 18  2  0
M  END
$$$$
