
     RDKit          3D

 29 32  0  0  0  0  0  0  0  0999 V2000
    4.8808    0.4677    2.3722 C   0  0  0  0  0  0  0  0  0  0  0  0
    3.6128    0.7691    1.8746 C   0  0  0  0  0  0  0  0  0  0  0  0
    5.9027    0.0731    1.5052 C   0  0  0  0  0  0  0  0  0  0  0  0
   -5.5759    1.0301   -1.1484 C   0  0  0  0  0  0  0  0  0  0  0  0
    7.7327   -1.5008   -0.4359 C   0  0  0  0  0  0  0  0  0  0  0  0
    8.1556   -0.0480   -0.6173 C   0  0  0  0  0  0  0  0  0  0  0  0
   -6.8998    0.6359   -1.3590 C   0  0  0  0  0  0  0  0  0  0  0  0
   -3.5535    1.3018    0.3389 C   0  0  0  0  0  0  0  0  0  0  0  0
    4.3816    0.2765   -0.3699 C   0  0  0  0  0  0  0  0  0  0  0  0
   -5.7496    0.3655    1.1760 C   0  0  0  0  0  0  0  0  0  0  0  0
    1.9827    0.9742   -0.0361 C   0  0  0  0  0  0  0  0  0  0  0  0
   -2.7619   -1.1063    0.4691 C   0  0  0  0  0  0  0  0  0  0  0  0
   -0.5400   -1.5186   -1.3037 C   0  0  0  0  0  0  0  0  0  0  0  0
   -4.9922    0.9018    0.1217 C   0  0  0  0  0  0  0  0  0  0  0  0
    3.3587    0.6896    0.4985 C   0  0  0  0  0  0  0  0  0  0  0  0
    6.7161   -0.4623   -0.8905 C   0  0  0  0  0  0  0  0  0  0  0  0
    5.6635   -0.0305    0.1173 C   0  0  0  0  0  0  0  0  0  0  0  0
   -2.5587    0.2581   -0.2312 C   0  0  2  0  0  0  0  0  0  0  0  0
   -7.0751   -0.0306    0.9654 C   0  0  0  0  0  0  0  0  0  0  0  0
   -0.0413   -0.1237   -0.8712 C   0  0  1  0  0  0  0  0  0  0  0  0
   -7.6546    0.1045   -0.3043 C   0  0  0  0  0  0  0  0  0  0  0  0
   -1.0838    0.7365   -0.0703 C   0  0  1  0  0  0  0  0  0  0  0  0
   -8.0780   -0.7604    2.4221 Br  0  0  0  0  0  0  0  0  0  0  0  0
    1.2251   -0.2802   -0.1285 N   0  0  0  0  0  0  0  0  0  0  0  0
   -8.9749   -0.2903   -0.5132 O   0  0  0  0  0  0  0  0  0  0  0  0
   -0.9623    2.0721   -0.5011 O   0  0  0  0  0  0  0  0  0  0  0  0
   -2.1961   -3.5133   -0.6012 O   0  0  0  0  0  0  0  0  0  0  0  0
   -0.6702   -2.6748    1.1272 O   0  0  0  0  0  0  0  0  0  0  0  0
   -1.5302   -2.2874   -0.0428 S   0  0  0  0  0  6  0  0  0  0  0  0
  1  2  2  0
  1  3  1  0
  2 15  1  0
  3 17  2  0
  4  7  2  0
  4 14  1  0
  5  6  1  0
  5 16  1  0
  6 16  1  0
  7 21  1  0
  8 14  1  0
 18  8  1  1
  9 15  2  0
  9 17  1  0
 10 14  2  0
 10 19  1  0
 11 15  1  0
 11 24  1  0
 12 18  1  0
 12 29  1  0
 13 20  1  0
 13 29  1  0
 16 17  1  0
 18 22  1  0
 19 21  2  0
 19 23  1  0
 20 22  1  0
 20 24  1  1
 21 25  1  0
 22 26  1  6
 27 29  2  0
 28 29  2  0
M  END
$$$$
