2XP6_4G2_A_1165_
     RDKit          3D

 16 17  0  0  0  0  0  0  0  0999 V2000
   40.0137  -12.6541   14.1423 O   0  0  0  0  0  0  0  0  0  0  0  0
   39.6923  -12.5388   12.9617 C   0  0  0  0  0  0  0  0  0  0  0  0
   39.7714  -11.4253   12.4456 O   0  0  0  0  0  0  0  0  0  0  0  0
   39.2872  -13.7987   12.1657 C   0  0  0  0  0  0  0  0  0  0  0  0
   38.7511  -13.8772   10.8800 C   0  0  0  0  0  0  0  0  0  0  0  0
   38.5932  -15.1703   10.6295 N   0  0  0  0  0  0  0  0  0  0  0  0
   39.0443  -15.8876   11.6738 C   0  0  0  0  0  0  0  0  0  0  0  0
   39.4910  -15.0566   12.6257 N   0  0  0  0  0  0  0  0  0  0  0  0
   39.0684  -17.2627   11.7364 C   0  0  0  0  0  0  0  0  0  0  0  0
   39.3456  -17.8565   12.9387 C   0  0  0  0  0  0  0  0  0  0  0  0
   39.3918  -19.2741   12.9890 C   0  0  0  0  0  0  0  0  0  0  0  0
   39.1610  -20.0620   11.8400 C   0  0  0  0  0  0  0  0  0  0  0  0
   38.9288  -19.4385   10.6073 C   0  0  0  0  0  0  0  0  0  0  0  0
   38.8872  -18.0287   10.5760 C   0  0  0  0  0  0  0  0  0  0  0  0
   39.7303  -20.0509   14.5023 Cl  0  0  0  0  0  0  0  0  0  0  0  0
   38.3627  -12.7396    9.9087 C   0  0  0  0  0  0  0  0  0  0  0  0
  1  2  2  0
  2  3  1  0
  2  4  1  0
  4  5  2  0
  5  6  1  0
  6  7  1  0
  4  8  1  0
  7  8  2  0
  7  9  1  0
  9 10  2  0
 10 11  1  0
 11 12  2  0
 12 13  1  0
  9 14  1  0
 13 14  2  0
 11 15  1  0
  5 16  1  0
M  END
$$$$
