
     RDKit          3D

 16 17  0  0  0  0  0  0  0  0999 V2000
   -2.9788   -2.1682   -0.1751 C   0  0  0  0  0  0  0  0  0  0  0  0
    3.6610   -0.9542    0.4649 C   0  0  0  0  0  0  0  0  0  0  0  0
    2.2757   -1.1002    0.3496 C   0  0  0  0  0  0  0  0  0  0  0  0
    4.2529    0.2948    0.2709 C   0  0  0  0  0  0  0  0  0  0  0  0
    2.0721    1.2614   -0.1573 C   0  0  0  0  0  0  0  0  0  0  0  0
   -1.9203   -1.1125   -0.1694 C   0  0  0  0  0  0  0  0  0  0  0  0
    1.4623    0.0066    0.0400 C   0  0  0  0  0  0  0  0  0  0  0  0
    3.4601    1.4022   -0.0410 C   0  0  0  0  0  0  0  0  0  0  0  0
   -2.0999    0.2535   -0.2908 C   0  0  0  0  0  0  0  0  0  0  0  0
   -0.0078   -0.1689   -0.0786 C   0  0  0  0  0  0  0  0  0  0  0  0
   -3.3649    0.9917   -0.4514 C   0  0  0  0  0  0  0  0  0  0  0  0
    4.2069    2.9700   -0.2906 Cl  0  0  0  0  0  0  0  0  0  0  0  0
   -0.6069   -1.3809   -0.0342 N   0  0  0  0  0  0  0  0  0  0  0  0
   -0.8932    0.8416   -0.2326 N   0  0  0  0  0  0  0  0  0  0  0  0
   -4.4653    0.3800   -0.4954 O   0  0  0  0  0  0  0  0  0  0  0  0
   -3.3446    2.3790   -0.5557 O   0  0  0  0  0  0  0  0  0  0  0  0
  1  6  1  0
  2  3  2  0
  2  4  1  0
  3  7  1  0
  4  8  2  0
  5  7  2  0
  5  8  1  0
  6  9  2  0
  6 13  1  0
  7 10  1  0
  8 12  1  0
  9 11  1  0
  9 14  1  0
 10 13  2  0
 10 14  1  0
 11 15  2  0
 11 16  1  0
M  END
$$$$
