3EKR_PY9_B_901_
     RDKit          3D

 22 24  0  0  0  0  0  0  0  0999 V2000
   16.8883   -3.3246   50.6279 N   0  0  0  0  0  0  0  0  0  0  0  0
   15.0058    1.2444   49.0710 C   0  0  0  0  0  0  0  0  0  0  0  0
   16.3821    1.0192   48.7884 C   0  0  0  0  0  0  0  0  0  0  0  0
   16.9078   -0.3037   48.8765 C   0  0  0  0  0  0  0  0  0  0  0  0
   16.6248   -2.7631   49.3439 C   0  0  0  0  0  0  0  0  0  0  0  0
   16.6941   -2.7387   51.9962 C   0  0  0  0  0  0  0  0  0  0  0  0
   17.6124   -4.9837   52.2042 C   0  0  0  0  0  0  0  0  0  0  0  0
   14.2158   -3.5882   52.0364 C   0  0  0  0  0  0  0  0  0  0  0  0
   12.5166   -2.6154   53.5108 C   0  0  0  0  0  0  0  0  0  0  0  0
   14.8422   -1.7345   53.5655 C   0  0  0  0  0  0  0  0  0  0  0  0
   12.8828   -3.5471   52.5156 C   0  0  0  0  0  0  0  0  0  0  0  0
   14.6846   -1.1389   49.5166 C   0  0  0  0  0  0  0  0  0  0  0  0
   13.4853   -1.7168   54.0322 C   0  0  0  0  0  0  0  0  0  0  0  0
   14.1557    0.1744   49.4319 C   0  0  0  0  0  0  0  0  0  0  0  0
   16.0675   -1.3828   49.2426 C   0  0  0  0  0  0  0  0  0  0  0  0
   15.2343   -2.6912   52.5386 C   0  0  0  0  0  0  0  0  0  0  0  0
   17.6257   -3.6013   52.8659 C   0  0  0  0  0  0  0  0  0  0  0  0
   17.4454   -4.6793   50.7204 C   0  0  0  0  0  0  0  0  0  0  0  0
   15.8086   -0.7379   54.1765 C   0  0  0  0  0  0  0  0  0  0  0  0
   16.8357   -3.3429   48.2777 O   0  0  0  0  0  0  0  0  0  0  0  0
   14.4683    2.4965   49.0070 O   0  0  0  0  0  0  0  0  0  0  0  0
   18.2353   -0.4710   48.5957 O   0  0  0  0  0  0  0  0  0  0  0  0
  2  3  2  0
  3  4  1  0
  1  5  1  0
  1  6  1  0
  8 11  2  0
  9 11  1  0
  9 13  2  0
 10 13  1  0
  2 14  1  0
 12 14  2  0
  4 15  2  0
  5 15  1  0
 12 15  1  0
  6 16  1  0
  8 16  1  0
 10 16  2  0
  6 17  1  0
  7 17  1  0
  1 18  1  0
  7 18  1  0
 10 19  1  0
  5 20  2  0
  2 21  1  0
  4 22  1  0
M  END
$$$$
