1SQO_UI2_A_1001_
     RDKit          3D

 20 22  0  0  0  0  0  0  0  0999 V2000
   22.8698   15.6320   33.3607 C   0  0  0  0  0  0  0  0  0  0  0  0
   21.5822   15.6488   32.8059 C   0  0  0  0  0  0  0  0  0  0  0  0
   20.7069   16.7790   33.0195 C   0  0  0  0  0  0  0  0  0  0  0  0
   21.2142   17.8630   33.8093 C   0  0  0  0  0  0  0  0  0  0  0  0
   22.5179   17.8862   34.3551 C   0  0  0  0  0  0  0  0  0  0  0  0
   23.3432   16.7441   34.1338 C   0  0  0  0  0  0  0  0  0  0  0  0
   19.4162   16.7438   32.4866 C   0  0  0  0  0  0  0  0  0  0  0  0
   18.5453   17.8096   32.8460 C   0  0  0  0  0  0  0  0  0  0  0  0
   18.9728   18.8887   33.6811 C   0  0  0  0  0  0  0  0  0  0  0  0
   20.2873   18.9601   34.1291 C   0  0  0  0  0  0  0  0  0  0  0  0
   23.0640   19.0012   35.0829 N   0  0  0  0  0  0  0  0  0  0  0  0
   23.6200   18.9516   36.3581 C   0  0  0  0  0  0  0  0  0  0  0  0
   23.5893   17.8413   37.1619 N   0  0  0  0  0  0  0  0  0  0  0  0
   24.0712   17.7710   38.4304 C   0  0  0  0  0  0  0  0  0  0  0  0
   24.6829   18.9312   39.0550 C   0  0  0  0  0  0  0  0  0  0  0  0
   24.6242   20.0681   38.1496 C   0  0  0  0  0  0  0  0  0  0  0  0
   24.1764   20.1002   36.9219 N   0  0  0  0  0  0  0  0  0  0  0  0
   18.1482   19.9321   34.1002 C   0  0  0  0  0  0  0  0  0  0  0  0
   16.8417   19.8245   34.0762 N   0  0  0  0  0  0  0  0  0  0  0  0
   18.5883   21.1283   34.5627 N   0  0  0  0  0  0  0  0  0  0  0  0
  1  2  2  0
  2  3  1  0
  3  4  2  0
  4  5  1  0
  1  6  1  0
  5  6  2  0
  3  7  1  0
  7  8  2  0
  8  9  1  0
  4 10  1  0
  9 10  2  0
  5 11  1  0
 11 12  1  0
 12 13  2  0
 13 14  1  0
 14 15  2  0
 15 16  1  0
 12 17  1  0
 16 17  2  0
  9 18  1  0
 18 19  2  0
 18 20  1  0
M  END
$$$$
