
     RDKit          3D

 24 27  0  0  0  0  0  0  0  0999 V2000
    5.2712    2.1659   -0.1934 C   0  0  0  0  0  0  0  0  0  0  0  0
    4.1958    2.4543    0.6497 C   0  0  0  0  0  0  0  0  0  0  0  0
    5.2462    1.0184   -0.9890 C   0  0  0  0  0  0  0  0  0  0  0  0
    3.0927    1.5965    0.6989 C   0  0  0  0  0  0  0  0  0  0  0  0
    4.1461    0.1564   -0.9433 C   0  0  0  0  0  0  0  0  0  0  0  0
    2.0737   -1.8745   -0.0675 C   0  0  0  0  0  0  0  0  0  0  0  0
    0.5703    0.0447    0.0202 C   0  0  0  0  0  0  0  0  0  0  0  0
   -4.3725    1.3136    1.4983 C   0  0  0  0  0  0  0  0  0  0  0  0
   -4.5051    1.3464   -0.8978 C   0  0  0  0  0  0  0  0  0  0  0  0
   -2.2311    1.0827    0.1748 C   0  0  0  0  0  0  0  0  0  0  0  0
   -0.5116   -4.3081    0.0499 C   0  0  0  0  0  0  0  0  0  0  0  0
   -6.4616    1.5344    0.4150 C   0  0  0  0  0  0  0  0  0  0  0  0
   -3.7210    1.2731    0.2598 C   0  0  0  0  0  0  0  0  0  0  0  0
    3.0553    0.4365   -0.0983 C   0  0  0  0  0  0  0  0  0  0  0  0
    1.8855   -0.4771   -0.0479 C   0  0  0  0  0  0  0  0  0  0  0  0
    0.8514   -4.0589   -0.0177 C   0  0  0  0  0  0  0  0  0  0  0  0
    0.9447   -2.6860   -0.0166 C   0  0  0  0  0  0  0  0  0  0  0  0
   -0.5391   -0.8285    0.0702 C   0  0  0  0  0  0  0  0  0  0  0  0
    2.2615   -5.3435   -0.0948 Br  0  0  0  0  0  0  0  0  0  0  0  0
   -5.7231    1.4477    1.5517 N   0  0  0  0  0  0  0  0  0  0  0  0
   -5.8531    1.4798   -0.7982 N   0  0  0  0  0  0  0  0  0  0  0  0
   -1.8933   -0.3415    0.1387 N   0  0  0  0  0  0  0  0  0  0  0  0
   -1.1896   -3.1380    0.0899 N   0  0  0  0  0  0  0  0  0  0  0  0
   -0.2907   -2.1670    0.0491 N   0  0  0  0  0  0  0  0  0  0  0  0
  1  2  2  0
  1  3  1  0
  2  4  1  0
  3  5  2  0
  4 14  2  0
  5 14  1  0
  6 15  2  0
  6 17  1  0
  7 15  1  0
  7 18  2  0
  8 13  2  0
  8 20  1  0
  9 13  1  0
  9 21  2  0
 10 13  1  0
 10 22  1  0
 11 16  1  0
 11 23  2  0
 12 20  2  0
 12 21  1  0
 14 15  1  0
 16 17  2  0
 16 19  1  0
 17 24  1  0
 18 22  1  0
 18 24  1  0
 23 24  1  0
M  END
$$$$
