4E3G_PHB_A_303_
     RDKit          3D

 10 10  0  0  0  0  0  0  0  0999 V2000
   -4.7338    2.2244   15.3415 C   0  0  0  0  0  0  0  0  0  0  0  0
   -5.9237    1.8875   15.6395 O   0  0  0  0  0  0  0  0  0  0  0  0
   -3.8382    1.4339   15.7337 O   0  0  0  0  0  0  0  0  0  0  0  0
   -4.4594    3.5028   14.7944 C   0  0  0  0  0  0  0  0  0  0  0  0
   -3.1152    3.9556   14.7880 C   0  0  0  0  0  0  0  0  0  0  0  0
   -2.7132    5.2466   14.3326 C   0  0  0  0  0  0  0  0  0  0  0  0
   -3.8054    5.9963   13.7951 C   0  0  0  0  0  0  0  0  0  0  0  0
   -5.1365    5.5486   13.7906 C   0  0  0  0  0  0  0  0  0  0  0  0
   -5.4787    4.3274   14.3499 C   0  0  0  0  0  0  0  0  0  0  0  0
   -3.5950    7.2651   13.2377 O   0  0  0  0  0  0  0  0  0  0  0  0
  1  2  2  0
  1  3  1  0
  1  4  1  0
  4  5  2  0
  5  6  1  0
  6  7  2  0
  7  8  1  0
  4  9  1  0
  8  9  2  0
  7 10  1  0
M  END
$$$$
