
     RDKit          3D

 10 10  0  0  0  0  0  0  0  0999 V2000
    0.2489    1.0613    0.6353 C   0  0  0  0  0  0  0  0  0  0  0  0
    0.0899   -0.9958   -0.6372 C   0  0  0  0  0  0  0  0  0  0  0  0
   -1.1297    1.0230    0.8658 C   0  0  0  0  0  0  0  0  0  0  0  0
   -1.2886   -1.0305   -0.4045 C   0  0  0  0  0  0  0  0  0  0  0  0
    0.8734    0.0510   -0.1194 C   0  0  0  0  0  0  0  0  0  0  0  0
   -1.9020   -0.0235    0.3461 C   0  0  0  0  0  0  0  0  0  0  0  0
    2.3317    0.0856   -0.3670 C   0  0  0  0  0  0  0  0  0  0  0  0
   -3.2761   -0.0717    0.5695 O   0  0  0  0  0  0  0  0  0  0  0  0
    2.9406   -0.9188   -1.1151 O   0  0  0  0  0  0  0  0  0  0  0  0
    3.0361    1.0231    0.0962 O   0  0  0  0  0  0  0  0  0  0  0  0
  1  3  2  0
  1  5  1  0
  2  4  1  0
  2  5  2  0
  3  6  1  0
  4  6  2  0
  5  7  1  0
  6  8  1  0
  7  9  1  0
  7 10  2  0
M  END
$$$$
