2XM2_LOG_B_1000_
     RDKit          3D

 16 16  0  0  0  0  0  0  0  0999 V2000
   -8.0954  -11.9734    8.2018 C   0  0  0  0  0  0  0  0  0  0  0  0
   -8.9182  -11.6351    9.4681 C   0  0  0  0  0  0  0  0  0  0  0  0
   -8.1806  -10.6527   10.3963 C   0  0  0  0  0  0  0  0  0  0  0  0
   -7.9004   -9.3705    9.5770 C   0  0  0  0  0  0  0  0  0  0  0  0
   -7.2973   -8.2027   10.3664 C   0  0  0  0  0  0  0  0  0  0  0  0
   -9.6270  -11.4179    6.4183 C   0  0  0  0  0  0  0  0  0  0  0  0
  -10.3513  -11.9047    5.1934 C   0  0  0  0  0  0  0  0  0  0  0  0
   -8.9132  -12.4027    7.0364 N   0  0  0  0  0  0  0  0  0  0  0  0
   -5.6371  -10.1512    6.4765 O   0  0  0  0  0  0  0  0  0  0  0  0
   -9.0598  -12.8912   10.1223 O   0  0  0  0  0  0  0  0  0  0  0  0
   -9.0572  -10.3976   11.5018 O   0  0  0  0  0  0  0  0  0  0  0  0
   -6.9639   -9.6530    8.5268 O   0  0  0  0  0  0  0  0  0  0  0  0
   -6.1013   -8.6481   11.0210 O   0  0  0  0  0  0  0  0  0  0  0  0
   -7.1724  -10.8814    7.8118 C   0  0  0  0  0  0  0  0  0  0  0  0
   -9.6016  -10.2333    6.8086 O   0  0  0  0  0  0  0  0  0  0  0  0
   -6.5150  -11.1187    6.8061 N   0  0  0  0  0  0  0  0  0  0  0  0
  1  2  1  0
  2  3  1  0
  3  4  1  0
  4  5  1  0
  6  7  1  0
  1  8  1  0
  6  8  1  0
  2 10  1  0
  3 11  1  0
  4 12  1  0
  5 13  1  0
  1 14  1  0
 12 14  1  0
  6 15  2  0
  9 16  1  0
 14 16  2  3
M  END
$$$$
