
     RDKit          3D

 27 28  0  0  0  0  0  0  0  0999 V2000
   -2.3570    3.3957    1.0872 C   0  0  0  0  0  0  0  0  0  0  0  0
   -2.2329    2.0922    1.8677 C   0  0  0  0  0  0  0  0  0  0  0  0
    5.2974    4.2625   -0.2680 C   0  0  0  0  0  0  0  0  0  0  0  0
    4.8379    3.6766    0.9148 C   0  0  0  0  0  0  0  0  0  0  0  0
    4.8979    3.7483   -1.5031 C   0  0  0  0  0  0  0  0  0  0  0  0
   -0.8627    1.4421    1.6446 C   0  0  0  0  0  0  0  0  0  0  0  0
    3.9910    2.5658    0.8631 C   0  0  0  0  0  0  0  0  0  0  0  0
    4.0488    2.6395   -1.5577 C   0  0  0  0  0  0  0  0  0  0  0  0
   -1.8682   -3.8928   -2.8613 C   0  0  0  0  0  0  0  0  0  0  0  0
    3.6160    2.0190   -0.3716 C   0  0  0  0  0  0  0  0  0  0  0  0
   -1.6234   -3.5339   -1.3903 C   0  0  2  0  0  0  0  0  0  0  0  0
   -0.7455    0.1641    2.4334 C   0  0  0  0  0  0  0  0  0  0  0  0
   -1.6175   -1.3020    0.6241 C   0  0  2  0  0  0  0  0  0  0  0  0
   -2.9076   -3.0317   -0.6899 C   0  0  2  0  0  0  0  0  0  0  0  0
   -2.5586   -2.5110    0.7183 C   0  0  2  0  0  0  0  0  0  0  0  0
   -0.4776   -1.5718   -0.3322 C   0  0  0  0  0  0  0  0  0  0  0  0
    2.6943   -0.1049   -1.1857 C   0  0  0  0  0  0  0  0  0  0  0  0
    2.6797    0.9323   -0.3941 N   0  0  0  0  0  0  0  0  0  0  0  0
   -1.1038   -0.9991    1.9650 N   0  0  0  0  0  0  0  0  0  0  0  0
    0.5804   -0.8271   -0.2861 N   0  0  0  0  0  0  0  0  0  0  0  0
   -2.6968   -5.0218   -2.9744 O   0  0  0  0  0  0  0  0  0  0  0  0
   -0.2708    0.2460    3.7383 O   0  0  0  0  0  0  0  0  0  0  0  0
   -3.8742   -4.0489   -0.6145 O   0  0  0  0  0  0  0  0  0  0  0  0
   -3.7299   -2.1245    1.3935 O   0  0  0  0  0  0  0  0  0  0  0  0
    3.7626   -0.3699   -2.0440 O   0  0  0  0  0  0  0  0  0  0  0  0
   -0.5898   -2.5457   -1.3357 O   0  0  0  0  0  0  0  0  0  0  0  0
    1.6258   -0.9999   -1.1658 O   0  0  0  0  0  0  0  0  0  0  0  0
  1  2  1  0
  2  6  1  0
  3  4  2  0
  3  5  1  0
  4  7  1  0
  5  8  2  0
  6 12  1  0
  7 10  2  0
  8 10  1  0
 11  9  1  6
  9 21  1  0
 10 18  1  0
 11 14  1  0
 11 26  1  0
 12 19  2  3
 12 22  1  0
 13 15  1  0
 13 16  1  0
 13 19  1  1
 14 15  1  0
 14 23  1  1
 15 24  1  6
 16 20  2  0
 16 26  1  0
 17 18  2  3
 17 25  1  0
 17 27  1  0
 20 27  1  0
M  END
$$$$
