
     RDKit          3D

 16 16  0  0  0  0  0  0  0  0999 V2000
    3.6854   -0.7919   -0.2781 C   0  0  0  0  0  0  0  0  0  0  0  0
   -3.2811   -0.7414    0.8854 C   0  0  0  0  0  0  0  0  0  0  0  0
    3.2482    0.6435   -0.3118 C   0  0  0  0  0  0  0  0  0  0  0  0
   -2.0385    0.0944    0.5544 C   0  0  2  0  0  0  0  0  0  0  0  0
    0.8305    0.0974   -0.2997 C   0  0  2  0  0  0  0  0  0  0  0  0
   -1.6228   -0.0421   -0.9252 C   0  0  2  0  0  0  0  0  0  0  0  0
   -0.2984    0.7090   -1.1508 C   0  0  2  0  0  0  0  0  0  0  0  0
    0.3798   -0.1250    1.1265 C   0  0  0  0  0  0  0  0  0  0  0  0
    1.9924    0.9936   -0.3376 N   0  0  0  0  0  0  0  0  0  0  0  0
    1.2637   -0.2305    2.0720 N   0  0  0  0  0  0  0  0  0  0  0  0
   -4.4071   -0.2249    0.2310 O   0  0  0  0  0  0  0  0  0  0  0  0
    4.2271    1.6326   -0.3432 O   0  0  0  0  0  0  0  0  0  0  0  0
   -2.6212    0.5103   -1.7458 O   0  0  0  0  0  0  0  0  0  0  0  0
    0.0468    0.6373   -2.5114 O   0  0  0  0  0  0  0  0  0  0  0  0
    0.9290   -0.4738    3.3884 O   0  0  0  0  0  0  0  0  0  0  0  0
   -0.9772   -0.3092    1.4204 O   0  0  0  0  0  0  0  0  0  0  0  0
  1  3  1  0
  4  2  1  6
  2 11  1  0
  3  9  2  3
  3 12  1  0
  4  6  1  0
  4 16  1  0
  5  7  1  0
  5  8  1  0
  5  9  1  1
  6  7  1  0
  6 13  1  6
  7 14  1  6
  8 10  2  0
  8 16  1  0
 10 15  1  0
M  END
$$$$
