
     RDKit          3D

 33 36  0  0  0  0  0  0  0  0999 V2000
   -9.6187    1.2893   -0.3906 C   0  0  0  0  0  0  0  0  0  0  0  0
   -0.2006   -3.6101    2.3134 C   0  0  0  0  0  0  0  0  0  0  0  0
   -1.3011   -3.7099    1.4658 C   0  0  0  0  0  0  0  0  0  0  0  0
    0.5598   -2.4411    2.3366 C   0  0  0  0  0  0  0  0  0  0  0  0
   -1.6381   -2.6462    0.6281 C   0  0  0  0  0  0  0  0  0  0  0  0
   -5.2707    1.5935   -0.4693 C   0  0  0  0  0  0  0  0  0  0  0  0
   -5.2567   -0.0477   -2.2504 C   0  0  0  0  0  0  0  0  0  0  0  0
    4.3273    1.0755   -1.3469 C   0  0  0  0  0  0  0  0  0  0  0  0
   -6.6660    1.5223   -0.4137 C   0  0  0  0  0  0  0  0  0  0  0  0
   -6.6516   -0.1187   -2.1945 C   0  0  0  0  0  0  0  0  0  0  0  0
    5.4969    0.9794   -2.1152 C   0  0  0  0  0  0  0  0  0  0  0  0
   -3.0576    0.8659   -1.4296 C   0  0  0  0  0  0  0  0  0  0  0  0
    1.0754   -0.0998    1.6221 C   0  0  0  0  0  0  0  0  0  0  0  0
    3.0560    1.0346    0.8164 C   0  0  0  0  0  0  0  0  0  0  0  0
    8.8456    0.2037   -0.9371 C   0  0  0  0  0  0  0  0  0  0  0  0
   -4.5576    0.8198   -1.3977 C   0  0  0  0  0  0  0  0  0  0  0  0
    0.2293   -1.3503    1.5119 C   0  0  0  0  0  0  0  0  0  0  0  0
    4.3557    0.8753    0.0589 C   0  0  0  0  0  0  0  0  0  0  0  0
   -7.3681    0.6633   -1.2810 C   0  0  0  0  0  0  0  0  0  0  0  0
   -0.8759   -1.4617    0.6228 C   0  0  0  0  0  0  0  0  0  0  0  0
    6.6803    0.6771   -1.4588 C   0  0  0  0  0  0  0  0  0  0  0  0
    5.5909    0.5376    0.6975 C   0  0  0  0  0  0  0  0  0  0  0  0
    6.7288    0.4667   -0.1188 C   0  0  0  0  0  0  0  0  0  0  0  0
   -1.2635   -0.3806   -0.3155 C   0  0  0  0  0  0  0  0  0  0  0  0
    5.7234    0.2616    2.1488 C   0  0  0  0  0  0  0  0  0  0  0  0
    2.2900   -0.2210    0.8013 N   0  0  0  0  0  4  0  0  0  0  0  0
   -2.5276   -0.1495   -0.5269 N   0  0  0  0  0  0  0  0  0  0  0  0
   -0.2709    0.3495   -0.9763 O   0  0  0  0  0  0  0  0  0  0  0  0
    6.8065    0.5182    2.7410 O   0  0  0  0  0  0  0  0  0  0  0  0
    4.6823   -0.3192    2.8660 O   0  0  0  0  0  0  0  0  0  0  0  0
   -8.7667    0.5562   -1.2647 O   0  0  0  0  0  0  0  0  0  0  0  0
    7.9426    0.5298   -2.0006 O   0  0  0  0  0  0  0  0  0  0  0  0
    8.0318    0.1704    0.2422 O   0  0  0  0  0  0  0  0  0  0  0  0
  1 31  1  0
  2  3  2  0
  2  4  1  0
  3  5  1  0
  4 17  2  0
  5 20  2  0
  6  9  2  0
  6 16  1  0
  7 10  1  0
  7 16  2  0
  8 11  2  0
  8 18  1  0
  9 19  1  0
 10 19  2  0
 11 21  1  0
 12 16  1  0
 12 27  1  0
 13 17  1  0
 13 26  1  0
 14 18  1  0
 14 26  1  0
 15 32  1  0
 15 33  1  0
 17 20  1  0
 18 22  2  0
 19 31  1  0
 20 24  1  0
 21 23  2  0
 21 32  1  0
 22 23  1  0
 22 25  1  0
 23 33  1  0
 24 27  2  3
 24 28  1  0
 25 29  2  0
 25 30  1  0
M  CHG  1  26   1
M  END
$$$$
