
     RDKit          3D

 16 17  0  0  0  0  0  0  0  0999 V2000
   -4.5986    0.5094    0.6669 C   0  0  0  0  0  0  0  0  0  0  0  0
   -3.9288    1.0227   -0.4472 C   0  0  0  0  0  0  0  0  0  0  0  0
   -4.0289   -0.5298    1.4077 C   0  0  0  0  0  0  0  0  0  0  0  0
   -2.6898    0.4956   -0.8246 C   0  0  0  0  0  0  0  0  0  0  0  0
   -2.7899   -1.0597    1.0340 C   0  0  0  0  0  0  0  0  0  0  0  0
   -0.7647   -1.1050   -0.4746 C   0  0  0  0  0  0  0  0  0  0  0  0
    1.3879    1.3845   -1.0200 C   0  0  0  0  0  0  0  0  0  0  0  0
   -2.1155   -0.5568   -0.0913 C   0  0  0  0  0  0  0  0  0  0  0  0
    0.3659   -0.4156    0.3149 C   0  0  1  0  0  0  0  0  0  0  0  0
    2.8291    1.0792   -0.5522 C   0  0  2  0  0  0  0  0  0  0  0  0
    1.7423   -1.1222    0.1164 C   0  0  2  0  0  0  0  0  0  0  0  0
    2.8828   -0.1298    0.4136 C   0  0  1  0  0  0  0  0  0  0  0  0
    0.3960    1.0335    0.0046 N   0  0  0  0  0  0  0  0  0  0  0  0
    3.3632    2.2151    0.0779 O   0  0  0  0  0  0  0  0  0  0  0  0
    1.8691   -1.6199   -1.1945 O   0  0  0  0  0  0  0  0  0  0  0  0
    4.1305   -0.7649    0.3009 O   0  0  0  0  0  0  0  0  0  0  0  0
  1  2  2  0
  1  3  1  0
  2  4  1  0
  3  5  2  0
  4  8  2  0
  5  8  1  0
  6  8  1  0
  9  6  1  6
  7 10  1  0
  7 13  1  0
  9 11  1  0
  9 13  1  0
 10 12  1  0
 10 14  1  1
 11 12  1  0
 11 15  1  6
 12 16  1  6
M  END
$$$$
