
     RDKit          3D

 24 24  0  0  0  0  0  0  0  0999 V2000
   -1.4654   -1.4728   -0.0917 C   0  0  0  0  0  0  0  0  0  0  0  0
   -1.5154    0.9218   -0.4553 C   0  0  0  0  0  0  0  0  0  0  0  0
   -2.8112   -1.4430    0.2852 C   0  0  0  0  0  0  0  0  0  0  0  0
   -2.8616    0.9483   -0.0789 C   0  0  0  0  0  0  0  0  0  0  0  0
    2.8461    0.8629   -1.2344 C   0  0  0  0  0  0  0  0  0  0  0  0
   -0.7985   -0.2890   -0.4557 C   0  0  0  0  0  0  0  0  0  0  0  0
   -3.5124   -0.2313    0.3017 C   0  0  0  0  0  0  0  0  0  0  0  0
    0.6282   -0.3353   -0.8566 C   0  0  0  0  0  0  0  0  0  0  0  0
    3.8707    0.9008   -0.0862 C   0  0  0  0  0  0  0  0  0  0  0  0
    3.8632   -0.3961    0.7620 C   0  0  0  0  0  0  0  0  0  0  0  0
    4.9762   -0.4161    1.8227 C   0  0  0  0  0  0  0  0  0  0  0  0
    5.1240    1.0805   -0.6479 F   0  0  0  0  0  0  0  0  0  0  0  0
    3.5980    1.9928    0.7221 F   0  0  0  0  0  0  0  0  0  0  0  0
    2.6469   -0.5185    1.4134 F   0  0  0  0  0  0  0  0  0  0  0  0
    4.0294   -1.4937   -0.0673 F   0  0  0  0  0  0  0  0  0  0  0  0
    4.8588    0.6693    2.6728 F   0  0  0  0  0  0  0  0  0  0  0  0
    4.8739   -1.5747    2.5720 F   0  0  0  0  0  0  0  0  0  0  0  0
    6.2232   -0.3914    1.2234 F   0  0  0  0  0  0  0  0  0  0  0  0
   -6.1916   -0.3719   -0.6530 N   0  0  0  0  0  0  0  0  0  0  0  0
    1.4723    0.8222   -0.7301 N   0  0  0  0  0  0  0  0  0  0  0  0
    1.1109   -1.4166   -1.2921 O   0  0  0  0  0  0  0  0  0  0  0  0
   -5.5057   -1.3158    1.7172 O   0  0  0  0  0  0  0  0  0  0  0  0
   -5.5278    1.1108    1.4347 O   0  0  0  0  0  0  0  0  0  0  0  0
   -5.2118   -0.1949    0.7599 S   0  0  0  0  0  6  0  0  0  0  0  0
  1  3  2  0
  1  6  1  0
  2  4  1  0
  2  6  2  0
  3  7  1  0
  4  7  2  0
  5  9  1  0
  5 20  1  0
  6  8  1  0
  7 24  1  0
  8 20  1  0
  8 21  2  0
  9 10  1  0
  9 12  1  0
  9 13  1  0
 10 11  1  0
 10 14  1  0
 10 15  1  0
 11 16  1  0
 11 17  1  0
 11 18  1  0
 19 24  1  0
 22 24  2  0
 23 24  2  0
M  END
$$$$
