3RYJ_RYJ_B_1_
     RDKit          3D

 18 18  0  0  0  0  0  0  0  0999 V2000
   15.1144    0.9550   16.8458 S   0  0  0  0  0  0  0  0  0  0  0  0
   18.4850    5.8941   13.5982 N   0  0  0  0  0  0  0  0  0  0  0  0
   16.3958    6.6933   13.5668 O   0  0  0  0  0  0  0  0  0  0  0  0
   16.6921    4.5917   14.6553 C   0  0  0  0  0  0  0  0  0  0  0  0
   17.0612    2.5163   15.7747 C   0  0  0  0  0  0  0  0  0  0  0  0
   17.5659    3.6301   15.0276 C   0  0  0  0  0  0  0  0  0  0  0  0
   15.6680    2.3160   16.0097 C   0  0  0  0  0  0  0  0  0  0  0  0
   15.3518    4.4527   14.9319 C   0  0  0  0  0  0  0  0  0  0  0  0
   14.8222    3.3553   15.5967 C   0  0  0  0  0  0  0  0  0  0  0  0
   17.2027    5.7772   13.8877 C   0  0  0  0  0  0  0  0  0  0  0  0
   20.5164    7.6955   14.5112 F   0  0  0  0  0  0  0  0  0  0  0  0
   18.6651    8.5152   14.6389 F   0  0  0  0  0  0  0  0  0  0  0  0
   19.9189    9.1292   12.9820 F   0  0  0  0  0  0  0  0  0  0  0  0
   18.9717    7.0182   12.7821 C   0  0  0  0  0  0  0  0  0  0  0  0
   15.6207    1.0518   18.1986 O   0  0  0  0  0  0  0  0  0  0  0  0
   19.5013    8.1055   13.7244 C   0  0  0  0  0  0  0  0  0  0  0  0
   15.6925   -0.3329   16.1436 O   0  0  0  0  0  0  0  0  0  0  0  0
   13.6485    1.0213   16.6854 N   0  0  0  0  0  0  0  0  0  0  0  0
  4  6  2  0
  5  6  1  0
  1  7  1  0
  5  7  2  0
  4  8  1  0
  7  9  1  0
  8  9  2  0
  2 10  1  0
  3 10  2  0
  4 10  1  0
  2 14  1  0
  1 15  2  0
 11 16  1  0
 12 16  1  0
 13 16  1  0
 14 16  1  0
  1 17  2  0
  1 18  1  0
M  END
$$$$
