
     RDKit          3D

 26 27  0  0  0  0  0  0  0  0999 V2000
   -0.5954   -2.2904    0.6120 C   0  0  0  0  0  0  0  0  0  0  0  0
   -4.3599    3.0046    1.4153 C   0  0  0  0  0  0  0  0  0  0  0  0
    1.8672   -1.9755   -1.3369 C   0  0  0  0  0  0  0  0  0  0  0  0
    2.2124   -0.5885   -0.7986 C   0  0  0  0  0  0  0  0  0  0  0  0
   -3.6067    0.2963   -1.0284 C   0  0  0  0  0  0  0  0  0  0  0  0
   -3.2193   -2.1696   -0.9027 C   0  0  0  0  0  0  0  0  0  0  0  0
   -1.7532   -1.9637   -2.8836 C   0  0  0  0  0  0  0  0  0  0  0  0
   -0.6954   -2.1773   -0.8860 C   0  0  0  0  0  0  0  0  0  0  0  0
   -4.0717    1.6512    0.8476 C   0  0  0  0  0  0  0  0  0  0  0  0
   -3.5323   -0.8494   -0.2220 C   0  0  0  0  0  0  0  0  0  0  0  0
    0.4191   -2.0533   -1.7283 C   0  0  0  0  0  0  0  0  0  0  0  0
   -3.7648   -0.6845    1.1716 C   0  0  0  0  0  0  0  0  0  0  0  0
   -3.7465   -1.6776    2.0100 N   0  0  0  0  0  0  0  0  0  0  0  0
   -3.8691    1.5090   -0.4848 N   0  0  0  0  0  0  0  0  0  0  0  0
   -4.0222    0.5620    1.6609 N   0  0  0  0  0  0  0  0  0  0  0  0
   -1.8980   -2.1214   -1.5450 N   0  0  0  0  0  4  0  0  0  0  0  0
    5.2296    2.8730    2.3579 O   0  0  0  0  0  0  0  0  0  0  0  0
    7.6510    2.6398    1.4323 O   0  0  0  0  0  0  0  0  0  0  0  0
    5.6431    3.7708   -0.0686 O   0  0  0  0  0  0  0  0  0  0  0  0
    3.1599    1.2097    1.4431 O   0  0  0  0  0  0  0  0  0  0  0  0
    3.5340    2.1696   -0.9704 O   0  0  0  0  0  0  0  0  0  0  0  0
    3.5776   -0.5589   -0.4557 O   0  0  0  0  0  0  0  0  0  0  0  0
    5.6167    1.0313    0.4970 O   0  0  0  0  0  0  0  0  0  0  0  0
    5.9959    2.5844    1.0864 P   0  0  0  0  0  5  0  0  0  0  0  0
    3.9457    0.9854    0.1690 P   0  0  2  0  0  5  0  0  0  0  0  0
   -0.1333   -1.8682   -3.3053 S   0  0  0  0  0  0  0  0  0  0  0  0
  1  8  1  0
  2  9  1  0
  3  4  1  0
  3 11  1  0
  4 22  1  0
  5 10  2  0
  5 14  1  0
  6 10  1  0
  6 16  1  0
  7 16  2  0
  7 26  1  0
  8 11  2  0
  8 16  1  0
  9 14  2  0
  9 15  1  0
 10 12  1  0
 11 26  1  0
 12 13  2  3
 12 15  1  0
 17 24  2  0
 18 24  1  0
 19 24  1  0
 20 25  2  0
 25 21  1  6
 22 25  1  0
 23 24  1  0
 23 25  1  0
M  CHG  1  16   1
M  END
$$$$
