
     RDKit          3D

 39 41  0  0  0  0  0  0  0  0999 V2000
    1.8101    2.5661   -0.3648 C   0  0  0  0  0  0  0  0  0  0  0  0
   -4.4598    5.7647   -1.5630 C   0  0  0  0  0  0  0  0  0  0  0  0
   -1.7366   -4.5806   -2.0229 C   0  0  0  0  0  0  0  0  0  0  0  0
   -1.4397   -2.4492    3.7119 C   0  0  0  0  0  0  0  0  0  0  0  0
   -0.4047   -2.5412    2.7812 C   0  0  0  0  0  0  0  0  0  0  0  0
   -2.6488   -1.8517    3.3536 C   0  0  0  0  0  0  0  0  0  0  0  0
   -0.5716   -2.0254    1.4935 C   0  0  0  0  0  0  0  0  0  0  0  0
   -2.8234   -1.3348    2.0670 C   0  0  0  0  0  0  0  0  0  0  0  0
    2.8989    0.3590   -2.3539 C   0  0  0  0  0  0  0  0  0  0  0  0
    3.8755   -0.4303   -1.4829 C   0  0  0  0  0  0  0  0  0  0  0  0
   -1.7959    3.1723   -1.2470 C   0  0  0  0  0  0  0  0  0  0  0  0
   -0.8762    1.8476    0.7425 C   0  0  0  0  0  0  0  0  0  0  0  0
    1.0410    1.3424   -0.7974 C   0  0  0  0  0  0  0  0  0  0  0  0
   -3.5480    4.7372   -0.9684 C   0  0  0  0  0  0  0  0  0  0  0  0
   -1.8316    2.8533    0.1216 C   0  0  0  0  0  0  0  0  0  0  0  0
   -1.7767   -1.3897    1.1217 C   0  0  0  0  0  0  0  0  0  0  0  0
    1.5349    0.4128   -1.7226 C   0  0  0  0  0  0  0  0  0  0  0  0
   -2.7614    3.5434    0.9264 C   0  0  0  0  0  0  0  0  0  0  0  0
   -0.6876   -0.1524   -0.7700 C   0  0  0  0  0  0  0  0  0  0  0  0
   -1.9705   -0.8411   -0.2903 C   0  0  2  0  0  0  0  0  0  0  0  0
   -2.8207    3.3082    2.2014 N   0  0  0  0  0  0  0  0  0  0  0  0
   -2.6479    4.0962   -1.7569 N   0  0  0  0  0  0  0  0  0  0  0  0
   -3.5970    4.4653    0.3642 N   0  0  0  0  0  0  0  0  0  0  0  0
   -0.1852    1.0151   -0.2618 N   0  0  0  0  0  4  0  0  0  0  0  0
   -3.0185    0.0979   -0.2993 O   0  0  0  0  0  0  0  0  0  0  0  0
   -3.8081   -2.7683   -0.8932 O   0  0  0  0  0  0  0  0  0  0  0  0
   -2.6054   -1.6955   -2.9649 O   0  0  0  0  0  0  0  0  0  0  0  0
    7.0431   -2.8869    1.8698 O   0  0  0  0  0  0  0  0  0  0  0  0
    5.1248   -4.8623    1.8176 O   0  0  0  0  0  0  0  0  0  0  0  0
    4.8841   -2.7678    3.3519 O   0  0  0  0  0  0  0  0  0  0  0  0
    6.4280   -0.6704    0.1618 O   0  0  0  0  0  0  0  0  0  0  0  0
    5.0425   -0.1157    2.3099 O   0  0  0  0  0  0  0  0  0  0  0  0
   -1.2907   -3.4803   -1.2698 O   0  0  0  0  0  0  0  0  0  0  0  0
    3.9642    0.1655   -0.2095 O   0  0  0  0  0  0  0  0  0  0  0  0
    4.5134   -2.3847    0.7687 O   0  0  0  0  0  0  0  0  0  0  0  0
   -2.4678   -2.2474   -1.3681 P   0  0  1  0  0  5  0  0  0  0  0  0
    5.3809   -3.1978    1.9892 P   0  0  0  0  0  5  0  0  0  0  0  0
    5.0339   -0.7612    0.7443 P   0  0  1  0  0  5  0  0  0  0  0  0
    0.4129   -0.8220   -1.8590 S   0  0  0  0  0  0  0  0  0  0  0  0
  1 13  1  0
  2 14  1  0
  3 33  1  0
  4  5  2  0
  4  6  1  0
  5  7  1  0
  6  8  2  0
  7 16  2  0
  8 16  1  0
  9 10  1  0
  9 17  1  0
 10 34  1  0
 11 15  2  0
 11 22  1  0
 12 15  1  0
 12 24  1  0
 13 17  2  0
 13 24  1  0
 14 22  2  0
 14 23  1  0
 15 18  1  0
 16 20  1  0
 17 39  1  0
 18 21  2  3
 18 23  1  0
 19 20  1  0
 19 24  2  0
 19 39  1  0
 20 25  1  1
 20 36  1  0
 26 36  2  0
 36 27  1  6
 28 37  1  0
 29 37  1  0
 30 37  2  0
 31 38  2  0
 38 32  1  1
 33 36  1  0
 34 38  1  0
 35 37  1  0
 35 38  1  0
M  CHG  1  24   1
M  END
$$$$
