
     RDKit          3D

 21 22  0  0  0  0  0  0  0  0999 V2000
   -1.4278    3.4576   -0.0416 C   0  0  0  0  0  0  0  0  0  0  0  0
   -2.5954   -3.8655   -0.7541 C   0  0  0  0  0  0  0  0  0  0  0  0
   -4.6345    1.1007    0.5107 C   0  0  0  0  0  0  0  0  0  0  0  0
    1.5699   -0.6520   -1.4287 C   0  0  0  0  0  0  0  0  0  0  0  0
   -0.3670    0.7951   -0.7111 C   0  0  0  0  0  0  0  0  0  0  0  0
   -0.7291   -1.5820   -0.9460 C   0  0  0  0  0  0  0  0  0  0  0  0
    3.1294    1.0077   -0.3660 C   0  0  0  0  0  0  0  0  0  0  0  0
    0.1293   -0.4792   -1.0122 C   0  0  0  0  0  0  0  0  0  0  0  0
    2.5147   -0.2511   -0.3144 C   0  0  0  0  0  0  0  0  0  0  0  0
   -1.7068    0.9793   -0.3188 C   0  0  0  0  0  0  0  0  0  0  0  0
   -2.0706   -1.4236   -0.5573 C   0  0  0  0  0  0  0  0  0  0  0  0
   -2.5657   -0.1477   -0.2402 C   0  0  0  0  0  0  0  0  0  0  0  0
    2.7845   -1.0684    0.8108 C   0  0  0  0  0  0  0  0  0  0  0  0
    4.2118    0.6114    1.6987 C   0  0  0  0  0  0  0  0  0  0  0  0
    2.2538   -2.2459    0.9506 N   0  0  0  0  0  0  0  0  0  0  0  0
    5.0064    1.0083    2.6434 N   0  0  0  0  0  0  0  0  0  0  0  0
    3.9597    1.4131    0.6278 N   0  0  0  0  0  0  0  0  0  0  0  0
    3.6262   -0.6139    1.7813 N   0  0  0  0  0  0  0  0  0  0  0  0
   -2.1953    2.2583   -0.0078 O   0  0  0  0  0  0  0  0  0  0  0  0
   -2.9505   -2.5154   -0.4729 O   0  0  0  0  0  0  0  0  0  0  0  0
   -3.9190   -0.0735    0.1433 O   0  0  0  0  0  0  0  0  0  0  0  0
  1 19  1  0
  2 20  1  0
  3 21  1  0
  4  8  1  0
  4  9  1  0
  5  8  2  0
  5 10  1  0
  6  8  1  0
  6 11  2  0
  7  9  2  0
  7 17  1  0
  9 13  1  0
 10 12  2  0
 10 19  1  0
 11 12  1  0
 11 20  1  0
 12 21  1  0
 13 15  2  3
 13 18  1  0
 14 16  2  3
 14 17  1  0
 14 18  1  0
M  END
$$$$
