3F3V_1BU_A_1_
     RDKit          3D

 38 42  0  0  0  0  0  0  0  0999 V2000
  -11.0050   37.0580   -6.3800 C   0  0  0  0  0  0  0  0  0  0  0  0
   -9.7470   37.6040   -6.4520 C   0  0  0  0  0  0  0  0  0  0  0  0
   -8.7980   36.9380   -7.1820 C   0  0  0  0  0  0  0  0  0  0  0  0
   -9.1670   35.8230   -7.7430 N   0  0  0  0  0  0  0  0  0  0  0  0
  -11.2740   35.9340   -6.9890 N   0  0  0  0  0  0  0  0  0  0  0  0
    2.1150   35.7970   -9.2860 C   0  0  0  0  0  0  0  0  0  0  0  0
    2.0660   34.3150   -9.5840 C   0  0  0  0  0  0  0  0  0  0  0  0
    1.0700   33.5640   -9.0270 C   0  0  0  0  0  0  0  0  0  0  0  0
    3.0040   33.7670  -10.4080 C   0  0  0  0  0  0  0  0  0  0  0  0
    2.9720   32.4450  -10.6900 C   0  0  0  0  0  0  0  0  0  0  0  0
    1.9880   31.6870  -10.1390 C   0  0  0  0  0  0  0  0  0  0  0  0
    1.0400   32.2470   -9.3330 C   0  0  0  0  0  0  0  0  0  0  0  0
    0.1640   31.4620   -8.8120 N   0  0  0  0  0  0  0  0  0  0  0  0
    0.5300   30.4060   -8.3540 N   0  0  0  0  0  0  0  0  0  0  0  0
   -0.4940   29.8160   -7.8580 C   0  0  0  0  0  0  0  0  0  0  0  0
   -0.4440   28.4130   -7.2500 C   0  0  0  0  0  0  0  0  0  0  0  0
    0.9790   28.0920   -6.9270 C   0  0  0  0  0  0  0  0  0  0  0  0
   -1.2480   28.2390   -6.0230 C   0  0  0  0  0  0  0  0  0  0  0  0
   -1.0220   27.4540   -8.2480 C   0  0  0  0  0  0  0  0  0  0  0  0
   -1.5330   30.5910   -8.0430 C   0  0  0  0  0  0  0  0  0  0  0  0
   -1.0880   31.6680   -8.6140 C   0  0  0  0  0  0  0  0  0  0  0  0
   -1.7850   32.7080   -9.0140 N   0  0  0  0  0  0  0  0  0  0  0  0
   -2.8330   33.1740   -8.4240 C   0  0  0  0  0  0  0  0  0  0  0  0
   -3.1890   32.7220   -7.3730 O   0  0  0  0  0  0  0  0  0  0  0  0
   -3.4090   34.1660   -9.0420 N   0  0  0  0  0  0  0  0  0  0  0  0
   -4.4350   34.9190   -8.6220 C   0  0  0  0  0  0  0  0  0  0  0  0
   -5.2970   35.5370   -9.5100 C   0  0  0  0  0  0  0  0  0  0  0  0
   -6.3370   36.3370   -9.0800 C   0  0  0  0  0  0  0  0  0  0  0  0
   -4.6500   35.1690   -7.2910 C   0  0  0  0  0  0  0  0  0  0  0  0
   -5.6800   35.9640   -6.8690 C   0  0  0  0  0  0  0  0  0  0  0  0
   -6.5570   36.5590   -7.7520 C   0  0  0  0  0  0  0  0  0  0  0  0
   -7.5620   37.3420   -7.3330 N   0  0  0  0  0  0  0  0  0  0  0  0
   -9.5100   38.7770   -5.7910 C   0  0  0  0  0  0  0  0  0  0  0  0
  -10.5190   39.3810   -5.0700 C   0  0  0  0  0  0  0  0  0  0  0  0
  -10.3200   40.5050   -4.4220 N   0  0  0  0  0  0  0  0  0  0  0  0
  -11.7650   38.8160   -5.0140 C   0  0  0  0  0  0  0  0  0  0  0  0
  -12.0120   37.6510   -5.6720 C   0  0  0  0  0  0  0  0  0  0  0  0
  -10.3560   35.3310   -7.6420 C   0  0  0  0  0  0  0  0  0  0  0  0
  1  2  2  0
  2  3  1  0
  3  4  2  0
  1  5  1  0
  6  7  1  0
  7  8  2  0
  7  9  1  0
  9 10  2  0
 10 11  1  0
  8 12  1  0
 11 12  2  0
 12 13  1  0
 13 14  1  0
 14 15  2  0
 15 16  1  0
 16 17  1  0
 16 18  1  0
 16 19  1  0
 15 20  1  0
 13 21  1  0
 20 21  2  0
 21 22  1  0
 22 23  1  0
 23 24  2  0
 23 25  1  0
 25 26  1  0
 26 27  2  0
 27 28  1  0
 26 29  1  0
 29 30  2  0
 28 31  2  0
 30 31  1  0
  3 32  1  0
 31 32  1  0
  2 33  1  0
 33 34  2  0
 34 35  1  0
 34 36  1  0
  1 37  1  0
 36 37  2  0
  4 38  1  0
  5 38  2  0
M  END
$$$$
