
     RDKit          3D

 26 28  0  0  0  0  0  0  0  0999 V2000
   -0.7651   -3.6729    1.0937 C   0  0  0  0  0  0  0  0  0  0  0  0
   -2.3262   -3.4149   -0.8652 C   0  0  0  0  0  0  0  0  0  0  0  0
   -3.1530   -2.9994    1.4676 C   0  0  0  0  0  0  0  0  0  0  0  0
    6.2161   -1.4314   -1.7170 C   0  0  0  0  0  0  0  0  0  0  0  0
    5.1134   -2.2410   -2.0043 C   0  0  0  0  0  0  0  0  0  0  0  0
    6.0258   -0.1632   -1.1610 C   0  0  0  0  0  0  0  0  0  0  0  0
   -2.5801    3.5132    2.9156 C   0  0  0  0  0  0  0  0  0  0  0  0
   -2.8432    4.5385    2.0033 C   0  0  0  0  0  0  0  0  0  0  0  0
    3.8189   -1.7788   -1.7466 C   0  0  0  0  0  0  0  0  0  0  0  0
    4.7323    0.3013   -0.9025 C   0  0  0  0  0  0  0  0  0  0  0  0
   -2.1480    2.2642    2.4616 C   0  0  0  0  0  0  0  0  0  0  0  0
   -2.2495    3.0617    0.1751 C   0  0  0  0  0  0  0  0  0  0  0  0
   -0.4717   -0.9268   -0.3687 C   0  0  0  0  0  0  0  0  0  0  0  0
   -2.6833    4.3163    0.6282 C   0  0  0  0  0  0  0  0  0  0  0  0
    3.6180   -0.4947   -1.2235 C   0  0  0  0  0  0  0  0  0  0  0  0
   -1.9602    2.0370    1.0907 C   0  0  0  0  0  0  0  0  0  0  0  0
   -1.5335   -1.4056    0.3846 C   0  0  0  0  0  0  0  0  0  0  0  0
   -0.5029    0.4419   -0.1713 C   0  0  0  0  0  0  0  0  0  0  0  0
    1.7530    1.0921   -1.1669 C   0  0  0  0  0  0  0  0  0  0  0  0
   -1.9428   -2.8618    0.5203 C   0  0  0  0  0  0  0  0  0  0  0  0
   -2.9686    5.3598   -0.3070 N   0  0  0  0  0  0  0  0  0  0  0  0
    2.2836   -0.0709   -0.9137 N   0  0  0  0  0  0  0  0  0  0  0  0
    0.4377    1.4051   -0.6854 N   0  0  0  0  0  0  0  0  0  0  0  0
   -2.1656   -0.3734    0.9837 N   0  0  0  0  0  0  0  0  0  0  0  0
   -1.5470    0.7426    0.6325 N   0  0  0  0  0  0  0  0  0  0  0  0
    2.4316    2.0628   -1.9086 O   0  0  0  0  0  0  0  0  0  0  0  0
  1 20  1  0
  2 20  1  0
  3 20  1  0
  4  5  2  0
  4  6  1  0
  5  9  1  0
  6 10  2  0
  7  8  2  0
  7 11  1  0
  8 14  1  0
  9 15  2  0
 10 15  1  0
 11 16  2  0
 12 14  2  0
 12 16  1  0
 13 17  1  0
 13 18  2  0
 14 21  1  0
 15 22  1  0
 16 25  1  0
 17 20  1  0
 17 24  2  0
 18 23  1  0
 18 25  1  0
 19 22  2  3
 19 23  1  0
 19 26  1  0
 24 25  1  0
M  END
$$$$
