2J75_NOY_A_1446_
     RDKit          3D

 11 11  0  0  0  0  0  0  0  0999 V2000
   -1.7296   10.5591    6.8120 O   0  0  0  0  0  0  0  0  0  0  0  0
   -1.2267   10.4241    8.1367 C   0  0  0  0  0  0  0  0  0  0  0  0
   -0.4835   11.6956    8.5278 C   0  0  0  0  0  0  0  0  0  0  0  0
    0.6064   11.9378    7.6441 O   0  0  0  0  0  0  0  0  0  0  0  0
    0.0835   11.5791    9.9355 C   0  0  0  0  0  0  0  0  0  0  0  0
   -0.9506   11.1386   10.8913 N   0  0  0  0  0  0  0  0  0  0  0  0
   -1.7706    9.9850   10.5358 C   0  0  0  0  0  0  0  0  0  0  0  0
   -2.3785   10.1985    9.1426 C   0  0  0  0  0  0  0  0  0  0  0  0
   -3.2885    9.0362    8.7732 C   0  0  0  0  0  0  0  0  0  0  0  0
    0.5357   12.8700   10.3120 O   0  0  0  0  0  0  0  0  0  0  0  0
   -2.6350    7.7509    8.8800 O   0  0  0  0  0  0  0  0  0  0  0  0
  1  2  1  0
  2  3  1  0
  3  4  1  0
  3  5  1  0
  5  6  1  0
  6  7  1  0
  2  8  1  0
  7  8  1  0
  8  9  1  0
  5 10  1  0
  9 11  1  0
M  END
$$$$
