
     RDKit          3D

 44 49  0  0  0  0  0  0  0  0999 V2000
    0.4572    4.6829    1.2166 C   0  0  0  0  0  0  0  0  0  0  0  0
    3.9277    2.9542   -0.4723 C   0  0  0  0  0  0  0  0  0  0  0  0
    8.8791   -0.6590    0.6364 C   0  0  0  0  0  0  0  0  0  0  0  0
    4.6416   -2.1047   -2.0644 C   0  0  0  0  0  0  0  0  0  0  0  0
    5.3430   -2.6435   -0.9830 C   0  0  0  0  0  0  0  0  0  0  0  0
    5.0431   -0.8840   -2.6143 C   0  0  0  0  0  0  0  0  0  0  0  0
   -5.3854   -3.9430    0.6058 C   0  0  0  0  0  0  0  0  0  0  0  0
    6.4464   -1.9644   -0.4492 C   0  0  0  0  0  0  0  0  0  0  0  0
    6.1496   -0.2035   -2.0913 C   0  0  0  0  0  0  0  0  0  0  0  0
   -4.3843   -3.0549    0.9910 C   0  0  0  0  0  0  0  0  0  0  0  0
   -6.4735   -3.4969   -0.1504 C   0  0  0  0  0  0  0  0  0  0  0  0
   -1.9065    3.8278    1.1524 C   0  0  0  0  0  0  0  0  0  0  0  0
   -2.8308    2.7910    1.0200 C   0  0  0  0  0  0  0  0  0  0  0  0
   -8.1249   -2.3872   -2.5212 C   0  0  0  0  0  0  0  0  0  0  0  0
   -8.2612   -0.3518   -1.0664 C   0  0  0  0  0  0  0  0  0  0  0  0
   -9.6385   -2.2566   -2.6853 C   0  0  0  0  0  0  0  0  0  0  0  0
   -9.7658   -0.3621   -1.3602 C   0  0  0  0  0  0  0  0  0  0  0  0
   -5.5445   -1.2643   -0.1551 C   0  0  0  0  0  0  0  0  0  0  0  0
   -1.0234    1.2047    0.6941 C   0  0  0  0  0  0  0  0  0  0  0  0
    5.4001    0.2929    1.6483 C   0  0  0  0  0  0  0  0  0  0  0  0
    2.1571   -0.7609    2.8088 C   0  0  0  0  0  0  0  0  0  0  0  0
   -0.5310    3.5613    1.0688 C   0  0  0  0  0  0  0  0  0  0  0  0
    4.2708    1.7630    0.3830 C   0  0  0  0  0  0  0  0  0  0  0  0
    8.0974    0.0160   -0.4970 C   0  0  1  0  0  0  0  0  0  0  0  0
    6.8607   -0.7285   -0.9948 C   0  0  0  0  0  0  0  0  0  0  0  0
   -4.4533   -1.7020    0.6215 C   0  0  0  0  0  0  0  0  0  0  0  0
   -2.3991    1.4747    0.8123 C   0  0  0  0  0  0  0  0  0  0  0  0
   -6.5630   -2.1553   -0.5443 C   0  0  0  0  0  0  0  0  0  0  0  0
    5.5538    1.3345    0.7399 C   0  0  0  0  0  0  0  0  0  0  0  0
   -0.0837    2.2408    0.8443 C   0  0  0  0  0  0  0  0  0  0  0  0
    3.3925    0.9627    1.1020 C   0  0  0  0  0  0  0  0  0  0  0  0
    2.0051    1.0376    1.2604 C   0  0  0  0  0  0  0  0  0  0  0  0
   -3.3937   -0.7561    1.0565 C   0  0  0  0  0  0  0  0  0  0  0  0
    6.8089    2.0245    0.3761 C   0  0  0  0  0  0  0  0  0  0  0  0
    1.4159    0.1515    2.1150 N   0  0  0  0  0  0  0  0  0  0  0  0
    3.5148   -0.7754    2.6808 N   0  0  0  0  0  0  0  0  0  0  0  0
    7.8447    1.4272   -0.1574 N   0  0  0  0  0  0  0  0  0  0  0  0
   -3.3858    0.4595    0.5858 N   0  0  0  0  0  0  0  0  0  0  0  0
    1.3252    1.9947    0.7009 N   0  0  0  0  0  0  0  0  0  0  0  0
   -7.7021   -1.6856   -1.3005 N   0  0  0  0  0  0  0  0  0  0  0  0
    4.0869    0.0771    1.8323 N   0  0  0  0  0  0  0  0  0  0  0  0
   -2.4495   -1.1780    1.9933 O   0  0  0  0  0  0  0  0  0  0  0  0
    6.8629    3.4041    0.5607 O   0  0  0  0  0  0  0  0  0  0  0  0
  -10.0290   -0.8995   -2.6429 O   0  0  0  0  0  0  0  0  0  0  0  0
  1 22  1  0
  2 23  1  0
 24  3  1  1
  4  5  2  0
  4  6  1  0
  5  8  1  0
  6  9  2  0
  7 10  2  0
  7 11  1  0
  8 25  2  0
  9 25  1  0
 10 26  1  0
 11 28  2  0
 12 13  2  0
 12 22  1  0
 13 27  1  0
 14 16  1  0
 14 40  1  0
 15 17  1  0
 15 40  1  0
 16 44  1  0
 17 44  1  0
 18 26  2  0
 18 28  1  0
 19 27  2  0
 19 30  1  0
 20 29  2  0
 20 41  1  0
 21 35  2  0
 21 36  1  0
 22 30  2  0
 23 29  1  0
 23 31  2  0
 24 25  1  0
 24 37  1  0
 26 33  1  0
 27 38  1  0
 28 40  1  0
 29 34  1  0
 30 39  1  0
 31 32  1  0
 31 41  1  0
 32 35  1  0
 32 39  2  3
 33 38  2  3
 33 42  1  0
 34 37  2  3
 34 43  1  0
 36 41  1  0
M  END
$$$$
