1O2U_847_A_246_B
     RDKit          3D

 41 43  0  0  0  0  0  0  0  0999 V2000
   44.2420   -3.2020   26.1000 C   0  0  0  0  0  0  0  0  0  0  0  0
   44.5440   -1.8220   26.3140 C   0  0  0  0  0  0  0  0  0  0  0  0
   44.4070   -1.1980   27.5610 C   0  0  0  0  0  0  0  0  0  0  0  0
   43.9660   -1.9900   28.5750 C   0  0  0  0  0  0  0  0  0  0  0  0
   43.6720   -3.2930   28.4370 C   0  0  0  0  0  0  0  0  0  0  0  0
   43.7880   -3.9550   27.2280 C   0  0  0  0  0  0  0  0  0  0  0  0
   44.3970   -3.7830   24.8220 C   0  0  0  0  0  0  0  0  0  0  0  0
   44.1730   -5.0630   24.6800 N   0  0  0  0  0  0  0  0  0  0  0  0
   44.7550   -3.0450   23.7940 N   0  0  0  0  0  0  0  0  0  0  0  0
   43.7570   -1.6950   29.8000 N   0  0  0  0  0  0  0  0  0  0  0  0
   43.2690   -3.8510   29.5650 N   0  0  0  0  0  0  0  0  0  0  0  0
   43.3510   -2.7930   30.3590 C   0  0  0  0  0  0  0  0  0  0  0  0
   43.0110   -2.8320   31.7280 C   0  0  0  0  0  0  0  0  0  0  0  0
   42.6690   -4.0160   32.4170 C   0  0  0  0  0  0  0  0  0  0  0  0
   42.3260   -4.0120   33.7860 C   0  0  0  0  0  0  0  0  0  0  0  0
   41.8790   -5.3430   34.4630 C   0  0  0  0  0  0  0  0  0  0  0  0
   40.3660   -5.3610   34.0820 C   0  0  0  0  0  0  0  0  0  0  0  0
   40.0080   -6.1840   33.2580 O   0  0  0  0  0  0  0  0  0  0  0  0
   39.6310   -4.5390   34.6180 O   0  0  0  0  0  0  0  0  0  0  0  0
   42.0400   -5.3820   36.0420 C   0  0  0  0  0  0  0  0  0  0  0  0
   43.3120   -6.1020   36.6020 C   0  0  0  0  0  0  0  0  0  0  0  0
   43.6110   -7.2490   36.3110 O   0  0  0  0  0  0  0  0  0  0  0  0
   43.9690   -5.4260   37.3650 O   0  0  0  0  0  0  0  0  0  0  0  0
   42.3400   -2.7980   34.4710 C   0  0  0  0  0  0  0  0  0  0  0  0
   42.6730   -1.6400   33.8050 C   0  0  0  0  0  0  0  0  0  0  0  0
   43.0000   -1.6410   32.4790 C   0  0  0  0  0  0  0  0  0  0  0  0
   43.3070   -0.4030   31.9530 O   0  0  0  0  0  0  0  0  0  0  0  0
   42.6990    0.0780   34.6920 Br  0  0  0  0  0  0  0  0  0  0  0  0
   44.8950   -1.2180   25.4960 H   0  0  0  0  0  0  0  0  0  0  0  0
   44.6350   -0.1550   27.7150 H   0  0  0  0  0  0  0  0  0  0  0  0
   43.5390   -5.0020   27.1580 H   0  0  0  0  0  0  0  0  0  0  0  0
   43.9270   -5.5780   25.5120 H   0  0  0  0  0  0  0  0  0  0  0  0
   44.2210   -5.5830   23.8360 H   0  0  0  0  0  0  0  0  0  0  0  0
   44.9260   -2.0550   23.9210 H   0  0  0  0  0  0  0  0  0  0  0  0
   44.9140   -3.4060   22.8820 H   0  0  0  0  0  0  0  0  0  0  0  0
   43.8630   -0.8200   30.2450 H   0  0  0  0  0  0  0  0  0  0  0  0
   42.6700   -4.9580   31.8880 H   0  0  0  0  0  0  0  0  0  0  0  0
   42.3850   -6.1860   34.0110 H   0  0  0  0  0  0  0  0  0  0  0  0
   42.0630   -4.3740   36.4060 H   0  0  0  0  0  0  0  0  0  0  0  0
   41.1720   -5.8390   36.4970 H   0  0  0  0  0  0  0  0  0  0  0  0
   42.0940   -2.7290   35.5170 H   0  0  0  0  0  0  0  0  0  0  0  0
  1  2  2  0
  2  3  1  0
  3  4  2  0
  4  5  1  0
  1  6  1  0
  5  6  2  0
  1  7  1  0
  7  8  1  0
  7  9  2  0
  4 10  1  0
  5 11  1  0
 10 12  1  0
 11 12  2  0
 12 13  1  0
 13 14  2  0
 14 15  1  0
 15 16  1  0
 16 17  1  0
 17 18  2  0
 17 19  1  0
 16 20  1  0
 20 21  1  0
 21 22  2  0
 21 23  1  0
 15 24  2  0
 24 25  1  0
 13 26  1  0
 25 26  2  0
 26 27  1  0
 25 28  1  0
  2 29  1  0
  3 30  1  0
  6 31  1  0
  8 32  1  0
  8 33  1  0
  9 34  1  0
  9 35  1  0
 10 36  1  0
 14 37  1  0
 16 38  1  0
 20 39  1  0
 20 40  1  0
 24 41  1  0
M  CHG  4   9   1  19  -1  23  -1  27  -1
M  END
$$$$
