3QCY_3Q3_A_371_
     RDKit          3D

 32 36  0  0  0  0  0  0  0  0999 V2000
  -52.3130   24.8140    9.0860 C   0  0  0  0  0  0  0  0  0  0  0  0
  -51.9380   23.6580    8.4390 C   0  0  0  0  0  0  0  0  0  0  0  0
  -51.4510   25.4180    9.9730 C   0  0  0  0  0  0  0  0  0  0  0  0
  -40.6460   16.4430   13.0320 C   0  0  0  0  0  0  0  0  0  0  0  0
  -41.8160   17.0990   12.7060 C   0  0  0  0  0  0  0  0  0  0  0  0
  -50.7030   23.1030    8.6790 C   0  0  0  0  0  0  0  0  0  0  0  0
  -50.2160   24.8640   10.2120 C   0  0  0  0  0  0  0  0  0  0  0  0
  -42.8600   15.1180   11.8700 C   0  0  0  0  0  0  0  0  0  0  0  0
  -44.2550   18.5570   11.9890 C   0  0  0  0  0  0  0  0  0  0  0  0
  -40.5950   15.0820   12.7690 C   0  0  0  0  0  0  0  0  0  0  0  0
  -42.9030   16.4710   12.1350 C   0  0  0  0  0  0  0  0  0  0  0  0
  -41.6950   14.4700   12.2100 C   0  0  0  0  0  0  0  0  0  0  0  0
  -49.8460   23.7080    9.5660 C   0  0  0  0  0  0  0  0  0  0  0  0
  -44.0980   17.2080   11.7620 C   0  0  0  0  0  0  0  0  0  0  0  0
  -45.4340   19.1380   11.5730 C   0  0  0  0  0  0  0  0  0  0  0  0
  -39.6330   14.0450   12.9310 C   0  0  0  0  0  0  0  0  0  0  0  0
  -46.1520   17.1230   10.7690 C   0  0  0  0  0  0  0  0  0  0  0  0
  -48.0390   23.1910   11.0650 C   0  0  0  0  0  0  0  0  0  0  0  0
  -44.8460   21.1600   12.7850 C   0  0  0  0  0  0  0  0  0  0  0  0
  -46.9820   21.0280   11.6660 C   0  0  0  0  0  0  0  0  0  0  0  0
  -44.6550   22.5540   12.2170 C   0  0  0  0  0  0  0  0  0  0  0  0
  -46.7480   22.4300   11.1220 C   0  0  0  0  0  0  0  0  0  0  0  0
  -45.0390   16.4830   11.1520 N   0  0  0  0  0  0  0  0  0  0  0  0
  -46.3800   18.4270   10.9520 N   0  0  0  0  0  0  0  0  0  0  0  0
  -40.1020   12.8730   12.4900 N   0  0  0  0  0  0  0  0  0  0  0  0
  -41.3440   13.1560   12.0670 N   0  0  0  0  0  0  0  0  0  0  0  0
  -45.6220   20.5300   11.7460 N   0  0  0  0  0  0  0  0  0  0  0  0
  -38.3940   14.2510   13.4610 N   0  0  0  0  0  0  0  0  0  0  0  0
  -47.1560   16.3900   10.1260 N   0  0  0  0  0  0  0  0  0  0  0  0
  -48.5900   23.1390    9.8060 N   0  0  0  0  0  0  0  0  0  0  0  0
  -48.5120   23.7790   12.0280 O   0  0  0  0  0  0  0  0  0  0  0  0
  -45.9310   23.1790   12.0300 O   0  0  0  0  0  0  0  0  0  0  0  0
  1  2  2  0
  1  3  1  0
  4  5  2  0
  2  6  1  0
  3  7  2  0
  4 10  1  0
  5 11  1  0
  8 11  2  0
  8 12  1  0
 10 12  1  0
  6 13  2  0
  7 13  1  0
  9 14  2  0
 11 14  1  0
  9 15  1  0
 10 16  2  0
 19 21  1  0
 18 22  1  0
 20 22  1  0
 14 23  1  0
 17 23  2  0
 15 24  2  0
 17 24  1  0
 16 25  1  0
 12 26  2  0
 25 26  1  0
 15 27  1  0
 19 27  1  0
 20 27  1  0
 16 28  1  0
 17 29  1  0
 13 30  1  0
 18 30  1  0
 18 31  2  0
 21 32  1  0
 22 32  1  0
M  END
$$$$
