
     RDKit          3D

 23 26  0  0  0  0  0  0  0  0999 V2000
    1.8981   -0.1135    1.4289 C   0  0  0  0  0  0  0  0  0  0  0  0
    3.1703    0.2149    1.9331 C   0  0  0  0  0  0  0  0  0  0  0  0
   -4.4602   -0.4369   -0.0318 C   0  0  0  0  0  0  0  0  0  0  0  0
   -3.1227    1.6712    0.2989 C   0  0  0  0  0  0  0  0  0  0  0  0
   -5.6536    0.4859   -0.2934 C   0  0  0  0  0  0  0  0  0  0  0  0
   -4.4292    2.4190    0.0153 C   0  0  0  0  0  0  0  0  0  0  0  0
    2.8476   -0.5135   -0.7981 C   0  0  0  0  0  0  0  0  0  0  0  0
   -0.7478   -0.0855   -0.0646 C   0  0  0  0  0  0  0  0  0  0  0  0
    1.7240   -0.4784    0.0634 C   0  0  0  0  0  0  0  0  0  0  0  0
    4.2424    0.1678    1.0491 C   0  0  0  0  0  0  0  0  0  0  0  0
    0.3781   -0.8236   -0.4588 C   0  0  0  0  0  0  0  0  0  0  0  0
    4.0904   -0.1826   -0.2656 C   0  0  0  0  0  0  0  0  0  0  0  0
   -2.0066   -0.4309   -0.5796 C   0  0  0  0  0  0  0  0  0  0  0  0
    5.5885    0.4194    1.1860 C   0  0  0  0  0  0  0  0  0  0  0  0
   -1.0065   -2.1912   -1.8189 C   0  0  0  0  0  0  0  0  0  0  0  0
    6.1905    0.7859    2.2712 N   0  0  0  0  0  0  0  0  0  0  0  0
   -1.1486   -3.1823   -2.6403 N   0  0  0  0  0  0  0  0  0  0  0  0
    0.2239   -1.8610   -1.3325 N   0  0  0  0  0  0  0  0  0  0  0  0
   -2.0980   -1.4797   -1.4401 N   0  0  0  0  0  0  0  0  0  0  0  0
    5.2823   -0.1434   -0.8920 N   0  0  0  0  0  0  0  0  0  0  0  0
    6.1993    0.2244   -0.0041 N   0  0  0  0  0  0  0  0  0  0  0  0
   -3.2000    0.2957   -0.2121 N   0  0  0  0  0  0  0  0  0  0  0  0
   -5.5440    1.6745    0.4640 O   0  0  0  0  0  0  0  0  0  0  0  0
  1  2  2  0
  1  9  1  0
  2 10  1  0
  3  5  1  0
  3 22  1  0
  4  6  1  0
  4 22  1  0
  5 23  1  0
  6 23  1  0
  7  9  2  0
  7 12  1  0
  8 11  2  0
  8 13  1  0
  9 11  1  0
 10 12  2  0
 10 14  1  0
 11 18  1  0
 12 20  1  0
 13 19  2  0
 13 22  1  0
 14 16  2  3
 14 21  1  0
 15 17  2  3
 15 18  1  0
 15 19  1  0
 20 21  1  0
M  END
$$$$
