
     RDKit          3D

 19 21  0  0  0  0  0  0  0  0999 V2000
   -6.1708    0.8430    1.1283 C   0  0  0  0  0  0  0  0  0  0  0  0
    6.2305   -0.0451    1.0291 C   0  0  0  0  0  0  0  0  0  0  0  0
   -5.0885    0.4064    0.1528 C   0  0  0  0  0  0  0  0  0  0  0  0
    0.9928   -0.6856   -1.6633 C   0  0  0  0  0  0  0  0  0  0  0  0
    0.9115    0.3092    1.0001 C   0  0  0  0  0  0  0  0  0  0  0  0
   -0.2558   -0.3769   -1.0630 C   0  0  0  0  0  0  0  0  0  0  0  0
   -0.2887    0.1235    0.2783 C   0  0  0  0  0  0  0  0  0  0  0  0
    2.1451   -0.4848   -0.9098 C   0  0  0  0  0  0  0  0  0  0  0  0
    2.1065   -0.0080    0.3669 C   0  0  0  0  0  0  0  0  0  0  0  0
   -1.4912   -0.5395   -1.7289 C   0  0  0  0  0  0  0  0  0  0  0  0
    4.1320   -0.3478   -0.1736 C   0  0  0  0  0  0  0  0  0  0  0  0
   -2.6532    0.2537    0.1918 C   0  0  0  0  0  0  0  0  0  0  0  0
    5.4293   -0.4204   -0.1295 N   0  0  0  0  0  0  0  0  0  0  0  0
   -3.7762    0.5484    0.7778 N   0  0  0  0  0  0  0  0  0  0  0  0
   -1.4825    0.4222    0.8620 N   0  0  0  0  0  0  0  0  0  0  0  0
    3.4205   -0.7059   -1.2694 N   0  0  0  0  0  0  0  0  0  0  0  0
    3.3552    0.0871    0.8537 N   0  0  0  0  0  0  0  0  0  0  0  0
   -2.6412   -0.2206   -1.0828 N   0  0  0  0  0  0  0  0  0  0  0  0
   -1.5931   -1.0184   -3.0372 O   0  0  0  0  0  0  0  0  0  0  0  0
  1  3  1  0
  2 13  1  0
  3 14  1  0
  4  6  2  0
  4  8  1  0
  5  7  2  0
  5  9  1  0
  6  7  1  0
  6 10  1  0
  7 15  1  0
  8  9  2  0
  8 16  1  0
  9 17  1  0
 10 18  2  0
 10 19  1  0
 11 13  2  3
 11 16  1  0
 11 17  1  0
 12 14  2  3
 12 15  1  0
 12 18  1  0
M  END
$$$$
