
     RDKit          3D

 30 33  0  0  0  0  0  0  0  0999 V2000
    2.8024   -1.5097   -0.5366 C   0  0  0  0  0  0  0  0  0  0  0  0
   -4.1360   -2.2909    3.1940 C   0  0  0  0  0  0  0  0  0  0  0  0
   -1.5943    1.2115   -1.9007 C   0  0  0  0  0  0  0  0  0  0  0  0
   -0.2100    1.6967   -1.4644 C   0  0  0  0  0  0  0  0  0  0  0  0
    2.9148    1.4026   -1.5060 C   0  0  0  0  0  0  0  0  0  0  0  0
    4.3213    1.2007   -0.9130 C   0  0  0  0  0  0  0  0  0  0  0  0
    0.5347   -0.7898    1.4624 C   0  0  0  0  0  0  0  0  0  0  0  0
    2.0386   -0.4641    1.6520 C   0  0  0  0  0  0  0  0  0  0  0  0
   -3.7007    0.1908   -1.0364 C   0  0  0  0  0  0  0  0  0  0  0  0
   -2.4679   -0.7707    1.2728 C   0  0  0  0  0  0  0  0  0  0  0  0
   -2.3388    0.4488   -0.8247 C   0  0  0  0  0  0  0  0  0  0  0  0
   -0.2244    0.2709    0.6038 C   0  0  1  0  0  0  0  0  0  0  0  0
    0.5268    0.5718   -0.7282 C   0  0  2  0  0  0  0  0  0  0  0  0
   -1.6903   -0.0736    0.3249 C   0  0  0  0  0  0  0  0  0  0  0  0
    1.9805    0.9533   -0.3917 C   0  0  1  0  0  0  0  0  0  0  0  0
   -3.8367   -1.0145    1.0579 C   0  0  0  0  0  0  0  0  0  0  0  0
   -4.4538   -0.5371   -0.1027 C   0  0  0  0  0  0  0  0  0  0  0  0
    4.1425    0.4295    0.4156 C   0  0  1  0  0  0  0  0  0  0  0  0
    2.7332   -0.1902    0.3012 C   0  0  2  0  0  0  0  0  0  0  0  0
   -8.3707   -0.8678   -1.4390 N   0  0  0  0  0  0  0  0  0  0  0  0
    7.0885    1.4195    1.0447 N   0  0  0  0  0  0  0  0  0  0  0  0
   -6.1712   -0.9005   -2.8917 O   0  0  0  0  0  0  0  0  0  0  0  0
   -6.7413    1.1889   -1.7314 O   0  0  0  0  0  0  0  0  0  0  0  0
    5.7751    0.1958    2.9944 O   0  0  0  0  0  0  0  0  0  0  0  0
    7.4049   -1.1024    1.7175 O   0  0  0  0  0  0  0  0  0  0  0  0
   -4.6216   -1.7270    1.9802 O   0  0  0  0  0  0  0  0  0  0  0  0
   -5.8191   -0.8069   -0.2851 O   0  0  0  0  0  0  0  0  0  0  0  0
    5.1383   -0.5662    0.5632 O   0  0  0  0  0  0  0  0  0  0  0  0
   -6.7465   -0.3106   -1.6347 S   0  0  0  0  0  6  0  0  0  0  0  0
    6.3519   -0.0351    1.6248 S   0  0  0  0  0  6  0  0  0  0  0  0
 19  1  1  6
  2 26  1  0
  3  4  1  0
  3 11  1  0
 13  4  1  1
  5  6  1  0
 15  5  1  6
  6 18  1  0
  7  8  1  0
 12  7  1  6
  8 19  1  0
  9 11  2  0
  9 17  1  0
 10 14  2  0
 10 16  1  0
 11 14  1  0
 12 13  1  0
 12 14  1  0
 13 15  1  0
 15 19  1  0
 16 17  2  0
 16 26  1  0
 17 27  1  0
 18 19  1  0
 18 28  1  6
 20 29  1  0
 21 30  1  0
 22 29  2  0
 23 29  2  0
 24 30  2  0
 25 30  2  0
 27 29  1  0
 28 30  1  0
M  END
$$$$
