
     RDKit          3D

 18 19  0  0  0  0  0  0  0  0999 V2000
   -1.0183    1.7995   -0.4861 C   0  0  0  0  0  0  0  0  0  0  0  0
    0.2025    2.2618    0.0278 C   0  0  0  0  0  0  0  0  0  0  0  0
   -0.1565   -0.4870   -0.5365 C   0  0  0  0  0  0  0  0  0  0  0  0
    2.1847   -0.7833    0.2656 C   0  0  0  0  0  0  0  0  0  0  0  0
   -2.5308   -0.0632   -1.2944 C   0  0  0  0  0  0  0  0  0  0  0  0
   -3.3875   -1.7721    0.3617 C   0  0  0  0  0  0  0  0  0  0  0  0
   -4.2574    0.5342    0.4539 C   0  0  0  0  0  0  0  0  0  0  0  0
   -1.2050    0.4272   -0.7759 C   0  0  0  0  0  0  0  0  0  0  0  0
    1.0533   -0.0130   -0.0240 C   0  0  0  0  0  0  0  0  0  0  0  0
    1.2168    1.3357    0.2481 C   0  0  0  0  0  0  0  0  0  0  0  0
    3.2355   -0.0154    0.7681 C   0  0  0  0  0  0  0  0  0  0  0  0
    4.6397   -0.5575    1.1930 B   0  0  0  0  0  0  0  0  0  0  0  0
   -3.4094   -0.4397   -0.1770 N   0  0  0  0  0  0  0  0  0  0  0  0
   -2.6661   -2.6685   -0.1510 O   0  0  0  0  0  0  0  0  0  0  0  0
   -4.3188    1.7172    0.0252 O   0  0  0  0  0  0  0  0  0  0  0  0
    5.6537    0.3592    1.7085 O   0  0  0  0  0  0  0  0  0  0  0  0
    4.9428   -1.9821    1.0763 O   0  0  0  0  0  0  0  0  0  0  0  0
    2.7597    1.6059    0.8511 S   0  0  0  0  0  0  0  0  0  0  0  0
  1  2  2  0
  1  8  1  0
  2 10  1  0
  3  8  2  0
  3  9  1  0
  4  9  1  0
  4 11  2  0
  5  8  1  0
  5 13  1  0
  6 13  1  0
  6 14  2  0
  7 13  1  0
  7 15  2  0
  9 10  2  0
 10 18  1  0
 11 12  1  0
 11 18  1  0
 12 16  1  0
 12 17  1  0
M  END
$$$$
