2WEJ_FB2_A_1263_
     RDKit          3D

 10 10  0  0  0  0  0  0  0  0999 V2000
   -4.3928    4.5196   14.4382 C   0  0  0  0  0  0  0  0  0  0  0  0
   -5.7334    4.4606   14.8376 C   0  0  0  0  0  0  0  0  0  0  0  0
   -6.2407    3.3720   15.5817 C   0  0  0  0  0  0  0  0  0  0  0  0
   -5.4154    2.2795   15.9547 C   0  0  0  0  0  0  0  0  0  0  0  0
   -4.0698    2.3683   15.5342 C   0  0  0  0  0  0  0  0  0  0  0  0
   -3.5505    3.4589   14.7891 C   0  0  0  0  0  0  0  0  0  0  0  0
   -5.9909    1.0094   16.8224 S   0  0  0  0  0  0  0  0  0  0  0  0
   -7.4409    1.0785   16.7731 O   0  0  0  0  0  0  0  0  0  0  0  0
   -5.4077    1.1730   18.1176 O   0  0  0  0  0  0  0  0  0  0  0  0
   -5.5014   -0.3724   16.2052 N   0  0  0  0  0  0  0  0  0  0  0  0
  1  2  2  0
  2  3  1  0
  3  4  2  0
  4  5  1  0
  1  6  1  0
  5  6  2  0
  4  7  1  0
  7  8  2  0
  7  9  2  0
  7 10  1  0
M  END
$$$$
