
     RDKit          3D

 18 17  0  0  0  0  0  0  0  0999 V2000
   -1.3962   -1.2148   -2.1682 C   0  0  0  0  0  0  0  0  0  0  0  0
   -0.4900   -0.0943   -2.7047 C   0  0  0  0  0  0  0  0  0  0  0  0
   -2.0621   -0.8624   -0.8348 C   0  0  0  0  0  0  0  0  0  0  0  0
    2.5624   -0.2547   -0.2828 C   0  0  0  0  0  0  0  0  0  0  0  0
    1.6266   -0.5943   -1.4008 C   0  0  0  0  0  0  0  0  0  0  0  0
    0.5377    0.2861   -1.7315 N   0  0  0  0  0  0  0  0  0  0  0  0
    1.7879   -1.6724   -2.0349 O   0  0  0  0  0  0  0  0  0  0  0  0
    0.4952    1.5298   -1.1906 O   0  0  0  0  0  0  0  0  0  0  0  0
   -2.1868    1.0671    1.6215 O   0  0  0  0  0  0  0  0  0  0  0  0
   -4.3936   -0.5411    1.1540 O   0  0  0  0  0  0  0  0  0  0  0  0
   -4.3189    1.9617    0.4010 O   0  0  0  0  0  0  0  0  0  0  0  0
    3.1481    1.8549    2.0563 O   0  0  0  0  0  0  0  0  0  0  0  0
    4.3476   -0.6559    2.1813 O   0  0  0  0  0  0  0  0  0  0  0  0
    2.1836   -0.0777    3.5114 O   0  0  0  0  0  0  0  0  0  0  0  0
   -2.8229    0.3141   -0.9786 O   0  0  0  0  0  0  0  0  0  0  0  0
    1.8615   -0.3489    0.9333 O   0  0  0  0  0  0  0  0  0  0  0  0
   -3.4535    0.7309    0.5487 P   0  0  0  0  0  5  0  0  0  0  0  0
    2.8766    0.1874    2.1949 P   0  0  0  0  0  5  0  0  0  0  0  0
  1  2  1  0
  1  3  1  0
  2  6  1  0
  3 15  1  0
  4  5  1  0
  4 16  1  0
  5  6  1  0
  5  7  2  0
  6  8  1  0
  9 17  1  0
 10 17  1  0
 11 17  2  0
 12 18  1  0
 13 18  1  0
 14 18  2  0
 15 17  1  0
 16 18  1  0
M  END
$$$$
