3RTM_RTM_A_395_
     RDKit          3D

 23 25  0  0  0  0  0  0  0  0999 V2000
   67.1345   49.9841    8.0257 N   0  0  0  0  0  0  0  0  0  0  0  0
   70.1836   46.4591    8.5818 N   0  0  0  0  0  0  0  0  0  0  0  0
   68.1336   49.6338   11.5144 C   0  0  0  0  0  0  0  0  0  0  0  0
   67.7211   49.2970   10.2183 C   0  0  0  0  0  0  0  0  0  0  0  0
   67.5311   50.3002    9.2634 C   0  0  0  0  0  0  0  0  0  0  0  0
   66.8972   48.7102    7.6587 C   0  0  0  0  0  0  0  0  0  0  0  0
   67.0679   47.6317    8.5720 C   0  0  0  0  0  0  0  0  0  0  0  0
   66.8246   46.1041    8.2919 C   0  0  0  0  0  0  0  0  0  0  0  0
   70.3327   45.6486    9.8173 C   0  0  0  0  0  0  0  0  0  0  0  0
   71.0797   48.6815    9.2837 C   0  0  0  0  0  0  0  0  0  0  0  0
   72.3744   49.9768    7.4789 C   0  0  0  0  0  0  0  0  0  0  0  0
   71.2810   50.0343    8.5827 C   0  0  0  0  0  0  0  0  0  0  0  0
   72.4917   48.6550    6.6657 C   0  0  0  0  0  0  0  0  0  0  0  0
   72.3226   47.3957    7.5277 C   0  0  0  0  0  0  0  0  0  0  0  0
   70.9801   47.6271    8.1771 C   0  0  0  0  0  0  0  0  0  0  0  0
   69.1633   46.2274    7.7586 C   0  0  0  0  0  0  0  0  0  0  0  0
   68.9665   46.9078    6.7446 O   0  0  0  0  0  0  0  0  0  0  0  0
   68.1109   45.2364    8.1719 C   0  0  0  0  0  0  0  0  0  0  0  0
   67.4884   47.9685    9.8679 C   0  0  0  0  0  0  0  0  0  0  0  0
   68.3606   50.9804   11.8407 C   0  0  0  0  0  0  0  0  0  0  0  0
   68.1726   51.9806   10.8857 C   0  0  0  0  0  0  0  0  0  0  0  0
   67.7635   51.6273    9.6018 C   0  0  0  0  0  0  0  0  0  0  0  0
   66.5037   48.5282    6.3964 N   0  0  0  0  0  0  0  0  0  0  0  0
  3  4  1  0
  1  5  2  0
  4  5  1  0
  1  6  1  0
  6  7  2  0
  7  8  1  0
  2  9  1  0
 10 12  1  0
 11 12  1  0
 11 13  1  0
 13 14  1  0
  2 15  1  0
 10 15  1  0
 14 15  1  0
  2 16  1  0
 16 17  2  0
  8 18  1  0
 16 18  1  0
  4 19  2  0
  7 19  1  0
  3 20  2  0
 20 21  1  0
  5 22  1  0
 21 22  2  0
  6 23  1  0
M  END
$$$$
