
     RDKit          3D

 21 24  0  0  0  0  0  0  0  0999 V2000
   -3.9476   -1.3790   -0.7318 C   0  0  0  0  0  0  0  0  0  0  0  0
    4.8661   -1.9242   -0.5555 C   0  0  0  0  0  0  0  0  0  0  0  0
    0.5678   -2.7407   -0.5684 C   0  0  0  0  0  0  0  0  0  0  0  0
    1.9540   -2.5077   -0.6197 C   0  0  0  0  0  0  0  0  0  0  0  0
   -0.4699    2.7281   -1.0670 C   0  0  0  0  0  0  0  0  0  0  0  0
   -0.9585    1.5518   -0.6418 C   0  0  0  0  0  0  0  0  0  0  0  0
   -1.5932    0.5132    1.6066 C   0  0  0  0  0  0  0  0  0  0  0  0
   -2.8879   -0.0739    0.9979 C   0  0  0  0  0  0  0  0  0  0  0  0
    0.7668    3.0621    1.0743 C   0  0  0  0  0  0  0  0  0  0  0  0
   -1.7720   -2.0697    0.0935 C   0  0  0  0  0  0  0  0  0  0  0  0
   -0.3240   -1.7240   -0.1645 C   0  0  0  0  0  0  0  0  0  0  0  0
    0.6915    3.4200   -0.4094 C   0  0  1  0  0  0  0  0  0  0  0  0
    2.4831   -1.2691   -0.2019 C   0  0  0  0  0  0  0  0  0  0  0  0
    0.7427    1.5456    1.2922 C   0  0  1  0  0  0  0  0  0  0  0  0
    0.2248   -0.4685    0.1642 C   0  0  0  0  0  0  0  0  0  0  0  0
    1.5851   -0.2878    0.2105 C   0  0  0  0  0  0  0  0  0  0  0  0
   -0.4549    0.8034    0.5969 C   0  0  2  0  0  0  0  0  0  0  0  0
   -2.6554   -0.9217   -0.1939 N   0  0  0  0  0  0  0  0  0  0  0  0
    1.8869    3.0604   -1.0512 O   0  0  0  0  0  0  0  0  0  0  0  0
    3.8581   -0.9978   -0.1655 O   0  0  0  0  0  0  0  0  0  0  0  0
    1.9166    0.9259    0.7724 O   0  0  0  0  0  0  0  0  0  0  0  0
  1 18  1  0
  2 20  1  0
  3  4  2  0
  3 11  1  0
  4 13  1  0
  5  6  2  0
  5 12  1  0
  6 17  1  0
  7  8  1  0
 17  7  1  1
  8 18  1  0
  9 12  1  0
 14  9  1  6
 10 11  1  0
 10 18  1  0
 11 15  2  0
 12 19  1  6
 13 16  2  0
 13 20  1  0
 14 17  1  0
 14 21  1  0
 15 16  1  0
 15 17  1  0
 16 21  1  0
M  END
$$$$
