
     RDKit          3D

 19 20  0  0  0  0  0  0  0  0999 V2000
    4.6772    1.0962   -2.2504 C   0  0  0  0  0  0  0  0  0  0  0  0
    2.8627    1.0963    1.1184 C   0  0  0  0  0  0  0  0  0  0  0  0
    0.3086    1.1250    0.8813 C   0  0  0  0  0  0  0  0  0  0  0  0
   -2.7052    1.2723    1.4600 C   0  0  0  0  0  0  0  0  0  0  0  0
    1.5261    0.4735    0.8696 C   0  0  0  0  0  0  0  0  0  0  0  0
   -2.0781    0.4855    0.2915 C   0  0  2  0  0  0  0  0  0  0  0  0
    3.4384    1.5913   -0.1678 C   0  0  0  0  0  0  0  0  0  0  0  0
   -2.8352   -0.8546    0.0807 C   0  0  2  0  0  0  0  0  0  0  0  0
   -2.0314   -1.8025   -0.8376 C   0  0  1  0  0  0  0  0  0  0  0  0
   -0.6646   -2.1590   -0.2124 C   0  0  2  0  0  0  0  0  0  0  0  0
    0.0174   -0.9082    0.2550 C   0  0  0  0  0  0  0  0  0  0  0  0
    1.3426   -0.8005    0.4749 N   0  0  0  0  0  4  0  0  0  0  0  0
   -0.6458    0.2360    0.5316 N   0  0  0  0  0  0  0  0  0  0  0  0
   -2.2974    2.6115    1.4182 O   0  0  0  0  0  0  0  0  0  0  0  0
    3.2572    2.7904   -0.5155 O   0  0  0  0  0  0  0  0  0  0  0  0
   -4.0859   -0.6027   -0.5115 O   0  0  0  0  0  0  0  0  0  0  0  0
   -2.7663   -2.9692   -1.1148 O   0  0  0  0  0  0  0  0  0  0  0  0
    0.1431   -2.8045   -1.1615 O   0  0  0  0  0  0  0  0  0  0  0  0
    4.1329    0.7050   -0.9960 O   0  0  0  0  0  0  0  0  0  0  0  0
  1 19  1  0
  2  5  1  0
  2  7  1  0
  3  5  2  0
  3 13  1  0
  6  4  1  1
  4 14  1  0
  5 12  1  0
  6  8  1  0
  6 13  1  0
  7 15  2  0
  7 19  1  0
  8  9  1  0
  8 16  1  6
  9 10  1  0
  9 17  1  1
 10 11  1  0
 10 18  1  6
 11 12  2  0
 11 13  1  0
M  CHG  1  12   1
M  END
$$$$
