
     RDKit          3D

 14 15  0  0  0  0  0  0  0  0999 V2000
   -2.9345    0.7496    0.1945 C   0  0  0  0  0  0  0  0  0  0  0  0
   -1.7678    1.4345    0.4668 C   0  0  0  0  0  0  0  0  0  0  0  0
    1.1466    2.2130   -0.1104 C   0  0  0  0  0  0  0  0  0  0  0  0
    0.7075    0.8545    0.4720 C   0  0  2  0  0  0  0  0  0  0  0  0
    1.5633   -0.2913   -0.1358 C   0  0  2  0  0  0  0  0  0  0  0  0
    0.9352   -1.6683    0.1591 C   0  0  1  0  0  0  0  0  0  0  0  0
   -0.4638   -1.7795   -0.4788 C   0  0  2  0  0  0  0  0  0  0  0  0
   -1.2773   -0.5650   -0.1334 C   0  0  0  0  0  0  0  0  0  0  0  0
   -2.6220   -0.5017   -0.1896 N   0  0  0  0  0  4  0  0  0  0  0  0
   -0.7246    0.6121    0.2259 N   0  0  0  0  0  0  0  0  0  0  0  0
    0.6668    3.2605    0.6860 O   0  0  0  0  0  0  0  0  0  0  0  0
    2.8570   -0.2568    0.4161 O   0  0  0  0  0  0  0  0  0  0  0  0
    1.7697   -2.6744   -0.3553 O   0  0  0  0  0  0  0  0  0  0  0  0
   -1.0998   -2.9366   -0.0006 O   0  0  0  0  0  0  0  0  0  0  0  0
  1  2  2  0
  1  9  1  0
  2 10  1  0
  4  3  1  6
  3 11  1  0
  4  5  1  0
  4 10  1  0
  5  6  1  0
  5 12  1  1
  6  7  1  0
  6 13  1  6
  7  8  1  0
  7 14  1  1
  8  9  2  0
  8 10  1  0
M  CHG  1   9   1
M  END
$$$$
