3RYX_RYX_B_1_
     RDKit          3D

 21 21  0  0  0  0  0  0  0  0999 V2000
   15.1238    0.9621   16.8954 S   0  0  0  0  0  0  0  0  0  0  0  0
   18.4886    5.8175   13.5335 N   0  0  0  0  0  0  0  0  0  0  0  0
   16.4488    6.7017   13.6323 O   0  0  0  0  0  0  0  0  0  0  0  0
   16.6562    4.6183   14.6766 C   0  0  0  0  0  0  0  0  0  0  0  0
   17.0994    2.4414   15.7714 C   0  0  0  0  0  0  0  0  0  0  0  0
   17.5137    3.5559   15.0388 C   0  0  0  0  0  0  0  0  0  0  0  0
   15.7155    2.3014   16.0656 C   0  0  0  0  0  0  0  0  0  0  0  0
   15.2894    4.5414   14.9760 C   0  0  0  0  0  0  0  0  0  0  0  0
   14.8662    3.3648   15.6124 C   0  0  0  0  0  0  0  0  0  0  0  0
   17.2056    5.7846   13.9246 C   0  0  0  0  0  0  0  0  0  0  0  0
   21.0368    6.8915   13.2926 F   0  0  0  0  0  0  0  0  0  0  0  0
   20.1633    9.3608   12.3844 F   0  0  0  0  0  0  0  0  0  0  0  0
   19.7226    7.4734   15.0739 F   0  0  0  0  0  0  0  0  0  0  0  0
   20.6931    9.7098   14.5229 F   0  0  0  0  0  0  0  0  0  0  0  0
   18.6706    9.1180   14.1815 F   0  0  0  0  0  0  0  0  0  0  0  0
   18.9771    6.9458   12.7788 C   0  0  0  0  0  0  0  0  0  0  0  0
   13.6692    1.0674   16.7655 O   0  0  0  0  0  0  0  0  0  0  0  0
   19.9829    7.5633   13.7544 C   0  0  0  0  0  0  0  0  0  0  0  0
   15.6395    1.0559   18.2287 O   0  0  0  0  0  0  0  0  0  0  0  0
   19.9029    9.0495   13.6723 C   0  0  0  0  0  0  0  0  0  0  0  0
   15.7460   -0.3095   16.1783 N   0  0  0  0  0  0  0  0  0  0  0  0
  4  6  2  0
  5  6  1  0
  1  7  1  0
  5  7  2  0
  4  8  1  0
  7  9  1  0
  8  9  2  0
  2 10  1  0
  3 10  2  0
  4 10  1  0
  2 16  1  0
  1 17  2  0
 11 18  1  0
 13 18  1  0
 16 18  1  0
  1 19  2  0
 12 20  1  0
 14 20  1  0
 15 20  1  0
 18 20  1  0
  1 21  1  0
M  END
$$$$
