4DJU_0KK_B_501_
     RDKit          3D

 20 22  0  0  0  0  0  0  0  0999 V2000
   22.1545   13.0194   22.3782 O   0  0  0  0  0  0  0  0  0  0  0  0
   22.2579   11.8274   22.6019 C   0  0  0  0  0  0  0  0  0  0  0  0
   21.9787   10.6665   21.6232 C   0  0  0  0  0  0  0  0  0  0  0  0
   22.3168    9.4418   22.4416 N   0  0  0  0  0  0  0  0  0  0  0  0
   22.6281    9.8300   23.6673 C   0  0  0  0  0  0  0  0  0  0  0  0
   22.6336   11.2653   23.8055 N   0  0  0  0  0  0  0  0  0  0  0  0
   22.9387    8.9894   24.6598 N   0  0  0  0  0  0  0  0  0  0  0  0
   22.9676   12.0547   24.9952 C   0  0  0  0  0  0  0  0  0  0  0  0
   20.4962   10.5473   21.2288 C   0  0  0  0  0  0  0  0  0  0  0  0
   20.0113    9.3973   20.6179 C   0  0  0  0  0  0  0  0  0  0  0  0
   18.6841    9.3093   20.2248 C   0  0  0  0  0  0  0  0  0  0  0  0
   17.8189   10.3657   20.4456 C   0  0  0  0  0  0  0  0  0  0  0  0
   18.2827   11.5090   21.0574 C   0  0  0  0  0  0  0  0  0  0  0  0
   19.6119   11.6008   21.4475 C   0  0  0  0  0  0  0  0  0  0  0  0
   22.8291   10.8455   20.3534 C   0  0  0  0  0  0  0  0  0  0  0  0
   22.6938   11.9710   19.5425 C   0  0  0  0  0  0  0  0  0  0  0  0
   23.4813   12.1288   18.4087 C   0  0  0  0  0  0  0  0  0  0  0  0
   24.3993   11.1609   18.0579 C   0  0  0  0  0  0  0  0  0  0  0  0
   24.5387   10.0381   18.8468 C   0  0  0  0  0  0  0  0  0  0  0  0
   23.7652    9.8832   19.9905 C   0  0  0  0  0  0  0  0  0  0  0  0
  1  2  2  0
  2  3  1  0
  3  4  1  0
  4  5  1  0
  2  6  1  0
  5  6  1  0
  5  7  2  0
  6  8  1  0
  3  9  1  0
  9 10  2  0
 10 11  1  0
 11 12  2  0
 12 13  1  0
  9 14  1  0
 13 14  2  0
  3 15  1  0
 15 16  2  0
 16 17  1  0
 17 18  2  0
 18 19  1  0
 19 20  2  0
 15 20  1  0
M  END
$$$$
