4DJV_0KM_A_501_
     RDKit          3D

 28 31  0  0  0  0  0  0  0  0999 V2000
   22.8640   12.9180   22.1510 O   0  0  0  0  0  0  0  0  0  0  0  0
   22.7760   11.7400   22.4370 C   0  0  0  0  0  0  0  0  0  0  0  0
   22.5330   10.5520   21.4300 C   0  0  0  0  0  0  0  0  0  0  0  0
   22.6980    9.3620   22.3290 N   0  0  0  0  0  0  0  0  0  0  0  0
   22.8530    9.7820   23.5950 C   0  0  0  0  0  0  0  0  0  0  0  0
   22.9440   11.2000   23.6910 N   0  0  0  0  0  0  0  0  0  0  0  0
   22.9790    8.9880   24.6570 N   0  0  0  0  0  0  0  0  0  0  0  0
   23.1800   11.9990   24.9000 C   0  0  0  0  0  0  0  0  0  0  0  0
   21.1000   10.5960   20.8630 C   0  0  0  0  0  0  0  0  0  0  0  0
   20.3420    9.4330   20.7660 C   0  0  0  0  0  0  0  0  0  0  0  0
   19.0400    9.4670   20.2690 C   0  0  0  0  0  0  0  0  0  0  0  0
   18.4810   10.6590   19.8700 C   0  0  0  0  0  0  0  0  0  0  0  0
   19.2200   11.8240   19.9540 C   0  0  0  0  0  0  0  0  0  0  0  0
   20.5250   11.7940   20.4410 C   0  0  0  0  0  0  0  0  0  0  0  0
   23.6440   10.6010   20.3640 C   0  0  0  0  0  0  0  0  0  0  0  0
   23.3550   10.8820   19.0310 C   0  0  0  0  0  0  0  0  0  0  0  0
   24.3740   11.0650   18.1080 C   0  0  0  0  0  0  0  0  0  0  0  0
   25.6940   10.9560   18.5040 C   0  0  0  0  0  0  0  0  0  0  0  0
   26.0150   10.6440   19.8290 C   0  0  0  0  0  0  0  0  0  0  0  0
   24.9770   10.4620   20.7510 C   0  0  0  0  0  0  0  0  0  0  0  0
   29.9970   10.4940   21.4150 C   0  0  0  0  0  0  0  0  0  0  0  0
   27.7730    9.5760   21.2460 C   0  0  0  0  0  0  0  0  0  0  0  0
   27.4290   10.5160   20.2730 C   0  0  0  0  0  0  0  0  0  0  0  0
   28.4120   11.4120   19.8460 C   0  0  0  0  0  0  0  0  0  0  0  0
   29.6820   11.4000   20.4130 C   0  0  0  0  0  0  0  0  0  0  0  0
   29.0400    9.5690   21.8180 C   0  0  0  0  0  0  0  0  0  0  0  0
   29.2030    8.6170   22.7950 O   0  0  0  0  0  0  0  0  0  0  0  0
   30.4090    8.6530   23.5740 C   0  0  0  0  0  0  0  0  0  0  0  0
  1  2  2  0
  2  3  1  0
  3  4  1  0
  4  5  1  0
  2  6  1  0
  5  6  1  0
  5  7  2  0
  6  8  1  0
  3  9  1  0
  9 10  2  0
 10 11  1  0
 11 12  2  0
 12 13  1  0
 13 14  2  0
  9 14  1  0
  3 15  1  0
 15 16  2  0
 16 17  1  0
 17 18  2  0
 18 19  1  0
 19 20  2  0
 15 20  1  0
 19 23  1  0
 22 23  1  0
 23 24  2  0
 24 25  1  0
 21 25  2  0
 22 26  2  0
 21 26  1  0
 26 27  1  0
 27 28  1  0
M  END
$$$$
