
     RDKit          3D

 10 10  0  0  0  0  0  0  0  0999 V2000
    3.6502    0.5682    0.2821 C   0  0  0  0  0  0  0  0  0  0  0  0
    0.1986   -1.6560   -1.1777 C   0  0  0  0  0  0  0  0  0  0  0  0
   -1.0728   -1.1044   -1.0043 C   0  0  0  0  0  0  0  0  0  0  0  0
    1.3300   -0.9708   -0.7273 C   0  0  0  0  0  0  0  0  0  0  0  0
   -0.0832    0.8252    0.0786 C   0  0  0  0  0  0  0  0  0  0  0  0
   -2.5910    0.7267   -0.1671 C   0  0  0  0  0  0  0  0  0  0  0  0
   -1.2211    0.1465   -0.3865 C   0  0  0  0  0  0  0  0  0  0  0  0
    1.1952    0.2783   -0.0911 C   0  0  0  0  0  0  0  0  0  0  0  0
   -3.0857    0.3487    1.1522 N   0  0  0  0  0  0  0  0  0  0  0  0
    2.2981    1.0024    0.3854 O   0  0  0  0  0  0  0  0  0  0  0  0
  1 10  1  0
  2  3  2  0
  2  4  1  0
  3  7  1  0
  4  8  2  0
  5  7  2  0
  5  8  1  0
  6  7  1  0
  6  9  1  0
  8 10  1  0
M  END
$$$$
