3HP2_P36_A_401_
     RDKit          3D

 23 25  0  0  0  0  0  0  0  0999 V2000
   35.6564   39.5121   27.1577 C   0  0  0  0  0  0  0  0  0  0  0  0
   35.1404   38.9814   28.3207 C   0  0  0  0  0  0  0  0  0  0  0  0
   33.8698   38.4567   28.3354 C   0  0  0  0  0  0  0  0  0  0  0  0
   33.1133   38.4587   27.1822 C   0  0  0  0  0  0  0  0  0  0  0  0
   33.6363   38.9935   26.0212 C   0  0  0  0  0  0  0  0  0  0  0  0
   34.9078   39.5222   26.0015 C   0  0  0  0  0  0  0  0  0  0  0  0
   32.8050   38.9895   24.7917 C   0  0  0  0  0  0  0  0  0  0  0  0
   33.5295   38.6859   23.5820 N   0  0  0  0  0  0  0  0  0  0  0  0
   33.9169   39.7383   22.7861 C   0  0  0  0  0  0  0  0  0  0  0  0
   34.6396   39.3847   21.5563 C   0  0  0  0  0  0  0  0  0  0  0  0
   34.9011   38.0993   21.2755 C   0  0  0  0  0  0  0  0  0  0  0  0
   34.4795   37.0386   22.1563 C   0  0  0  0  0  0  0  0  0  0  0  0
   33.8112   37.3696   23.2712 C   0  0  0  0  0  0  0  0  0  0  0  0
   33.7248   40.9231   22.9958 O   0  0  0  0  0  0  0  0  0  0  0  0
   35.5844   37.8395   20.0998 O   0  0  0  0  0  0  0  0  0  0  0  0
   35.9261   36.4772   19.8350 C   0  0  0  0  0  0  0  0  0  0  0  0
   36.6308   36.5749   18.5194 C   0  0  0  0  0  0  0  0  0  0  0  0
   35.9671   36.2752   17.3516 C   0  0  0  0  0  0  0  0  0  0  0  0
   36.6145   36.3704   16.1378 C   0  0  0  0  0  0  0  0  0  0  0  0
   37.9275   36.7864   16.0858 C   0  0  0  0  0  0  0  0  0  0  0  0
   38.5891   37.0960   17.2537 C   0  0  0  0  0  0  0  0  0  0  0  0
   37.9468   36.9838   18.4645 C   0  0  0  0  0  0  0  0  0  0  0  0
   35.1005   40.8420   20.5147 Br  0  0  0  0  0  0  0  0  0  0  0  0
  1  2  2  0
  2  3  1  0
  3  4  2  0
  4  5  1  0
  1  6  1  0
  5  6  2  0
  5  7  1  0
  7  8  1  0
  8  9  1  0
  9 10  1  0
 10 11  2  0
 11 12  1  0
  8 13  1  0
 12 13  2  0
  9 14  2  0
 11 15  1  0
 15 16  1  0
 16 17  1  0
 17 18  2  0
 18 19  1  0
 19 20  2  0
 20 21  1  0
 17 22  1  0
 21 22  2  0
 10 23  1  0
M  END
$$$$
