
     RDKit          3D

 30 32  0  0  0  0  0  0  0  0999 V2000
   -2.0048   -1.8334   -3.0500 C   0  0  0  0  0  0  0  0  0  0  0  0
    0.3342   -2.0643    0.1728 C   0  0  0  0  0  0  0  0  0  0  0  0
   -6.2512    0.2837    3.4095 C   0  0  0  0  0  0  0  0  0  0  0  0
   -3.9196   -1.6439   -1.4268 C   0  0  0  0  0  0  0  0  0  0  0  0
   -4.4843   -1.1698   -0.2405 C   0  0  0  0  0  0  0  0  0  0  0  0
    4.9850   -0.0944    0.7981 C   0  0  0  0  0  0  0  0  0  0  0  0
    5.1122    0.2641    2.1434 C   0  0  0  0  0  0  0  0  0  0  0  0
    1.8824   -0.5002   -1.0317 C   0  0  0  0  0  0  0  0  0  0  0  0
   -2.4164   -0.0293    0.2896 C   0  0  0  0  0  0  0  0  0  0  0  0
    4.8317    2.5946    1.5529 C   0  0  0  0  0  0  0  0  0  0  0  0
    4.6354    0.5039   -1.6320 C   0  0  0  0  0  0  0  0  0  0  0  0
   -2.5963   -1.3241   -1.7642 C   0  0  0  0  0  0  0  0  0  0  0  0
    0.5660   -0.8704   -0.7210 C   0  0  0  0  0  0  0  0  0  0  0  0
   -3.7385   -0.3581    0.6334 C   0  0  0  0  0  0  0  0  0  0  0  0
    4.7697    0.8904   -0.1814 C   0  0  0  0  0  0  0  0  0  0  0  0
    5.0339    1.6071    2.5212 C   0  0  0  0  0  0  0  0  0  0  0  0
    4.7037    2.2421    0.2051 C   0  0  0  0  0  0  0  0  0  0  0  0
   -1.8428   -0.5046   -0.8985 C   0  0  0  0  0  0  0  0  0  0  0  0
    2.1275    0.6113   -1.8504 C   0  0  0  0  0  0  0  0  0  0  0  0
    1.0429    1.3346   -2.3530 C   0  0  0  0  0  0  0  0  0  0  0  0
   -4.3274    0.1489    1.8974 C   0  0  0  0  0  0  0  0  0  0  0  0
   -0.2632    0.9494   -2.0246 C   0  0  0  0  0  0  0  0  0  0  0  0
    1.3481    2.8619   -3.4754 Br  0  0  0  0  0  0  0  0  0  0  0  0
    5.1571    1.9526    3.8264 F   0  0  0  0  0  0  0  0  0  0  0  0
    4.5170    3.2165   -0.7210 F   0  0  0  0  0  0  0  0  0  0  0  0
   -5.5585   -0.1493    2.2025 N   0  0  0  0  0  0  0  0  0  0  0  0
   -0.4860   -0.1400   -1.2216 N   0  0  0  0  0  0  0  0  0  0  0  0
   -3.5430    0.9424    2.7420 O   0  0  0  0  0  0  0  0  0  0  0  0
   -1.2351    1.6183   -2.4744 O   0  0  0  0  0  0  0  0  0  0  0  0
    3.4276    1.0261   -2.1871 O   0  0  0  0  0  0  0  0  0  0  0  0
  1 12  1  0
  2 13  1  0
  3 26  1  0
  4  5  2  0
  4 12  1  0
  5 14  1  0
  6  7  2  0
  6 15  1  0
  7 16  1  0
  8 13  2  0
  8 19  1  0
  9 14  2  0
  9 18  1  0
 10 16  2  0
 10 17  1  0
 11 15  1  0
 11 30  1  0
 12 18  2  0
 13 27  1  0
 14 21  1  0
 15 17  2  0
 16 24  1  0
 17 25  1  0
 18 27  1  0
 19 20  2  0
 19 30  1  0
 20 22  1  0
 20 23  1  0
 21 26  2  3
 21 28  1  0
 22 27  1  0
 22 29  2  0
M  END
$$$$
