
     RDKit          3D

 23 25  0  0  0  0  0  0  0  0999 V2000
   -4.6342    2.6284   -3.0277 C   0  0  0  0  0  0  0  0  0  0  0  0
    6.6687   -1.1133    1.9383 C   0  0  0  0  0  0  0  0  0  0  0  0
   -4.2857    1.3713   -3.5310 C   0  0  0  0  0  0  0  0  0  0  0  0
   -4.7048    2.8349   -1.6468 C   0  0  0  0  0  0  0  0  0  0  0  0
    5.9667   -1.4891    0.7885 C   0  0  0  0  0  0  0  0  0  0  0  0
    6.0293   -0.3786    2.9397 C   0  0  0  0  0  0  0  0  0  0  0  0
   -4.0108    0.3167   -2.6542 C   0  0  0  0  0  0  0  0  0  0  0  0
   -4.4288    1.7835   -0.7659 C   0  0  0  0  0  0  0  0  0  0  0  0
    4.6234   -1.1283    0.6383 C   0  0  0  0  0  0  0  0  0  0  0  0
    4.6858   -0.0205    2.7960 C   0  0  0  0  0  0  0  0  0  0  0  0
   -0.3974    0.1411    1.0835 C   0  0  0  0  0  0  0  0  0  0  0  0
   -1.7653    0.1663    0.8226 C   0  0  0  0  0  0  0  0  0  0  0  0
   -3.7771   -0.6163   -0.3193 C   0  0  0  0  0  0  0  0  0  0  0  0
    2.5323    0.0349    1.4971 C   0  0  0  0  0  0  0  0  0  0  0  0
   -4.0915    0.5126   -1.2649 C   0  0  0  0  0  0  0  0  0  0  0  0
    3.9650   -0.4064    1.6516 C   0  0  0  0  0  0  0  0  0  0  0  0
    0.4256   -0.7786    0.4130 C   0  0  0  0  0  0  0  0  0  0  0  0
   -0.1559   -1.6466   -0.5216 C   0  0  0  0  0  0  0  0  0  0  0  0
   -1.5348   -1.5821   -0.7705 C   0  0  0  0  0  0  0  0  0  0  0  0
    0.9440   -2.9044   -1.4662 Br  0  0  0  0  0  0  0  0  0  0  0  0
   -2.3269   -0.6965   -0.0794 N   0  0  0  0  0  0  0  0  0  0  0  0
   -2.0408   -2.3540   -1.6336 O   0  0  0  0  0  0  0  0  0  0  0  0
    1.8056   -0.8680    0.6642 O   0  0  0  0  0  0  0  0  0  0  0  0
  1  3  2  0
  1  4  1  0
  2  5  2  0
  2  6  1  0
  3  7  1  0
  4  8  2  0
  5  9  1  0
  6 10  2  0
  7 15  2  0
  8 15  1  0
  9 16  2  0
 10 16  1  0
 11 12  2  0
 11 17  1  0
 12 21  1  0
 13 15  1  0
 13 21  1  0
 14 16  1  0
 14 23  1  0
 17 18  2  0
 17 23  1  0
 18 19  1  0
 18 20  1  0
 19 21  1  0
 19 22  2  0
M  END
$$$$
