
     RDKit          3D

 25 25  0  0  0  0  0  0  0  0999 V2000
   -2.7986    1.4159    0.9199 C   0  0  0  0  0  0  0  0  0  0  0  0
    0.5290   -0.6489   -1.1183 C   0  0  0  0  0  0  0  0  0  0  0  0
    2.2939   -0.8061    0.5747 C   0  0  0  0  0  0  0  0  0  0  0  0
    1.5535   -1.4462   -0.3418 C   0  0  0  0  0  0  0  0  0  0  0  0
   -0.3017    0.2800   -0.1978 C   0  0  2  0  0  0  0  0  0  0  0  0
    2.0708    0.6606    0.8333 C   0  0  2  0  0  0  0  0  0  0  0  0
    0.5491    0.9088    0.9617 C   0  0  1  0  0  0  0  0  0  0  0  0
    1.7684   -2.8844   -0.6176 C   0  0  0  0  0  0  0  0  0  0  0  0
   -3.0446    0.1312   -1.2596 C   0  0  0  0  0  0  0  0  0  0  0  0
   -2.6586    0.0528    0.2042 C   0  0  1  0  0  0  0  0  0  0  0  0
    0.2824    2.2814    1.1125 O   0  0  0  0  0  0  0  0  0  0  0  0
    1.1005   -3.4663   -1.5142 O   0  0  0  0  0  0  0  0  0  0  0  0
    2.7111   -3.6090    0.1080 O   0  0  0  0  0  0  0  0  0  0  0  0
   -3.6880    1.1197   -1.7068 O   0  0  0  0  0  0  0  0  0  0  0  0
   -2.7327   -0.9239   -2.1121 O   0  0  0  0  0  0  0  0  0  0  0  0
   -5.4109   -0.5713    0.8214 O   0  0  0  0  0  0  0  0  0  0  0  0
   -3.4626   -1.2144    2.6597 O   0  0  0  0  0  0  0  0  0  0  0  0
   -3.6771   -2.4840    0.3853 O   0  0  0  0  0  0  0  0  0  0  0  0
    4.8482    2.5716   -1.3347 O   0  0  0  0  0  0  0  0  0  0  0  0
    5.1319    0.4588    0.4033 O   0  0  0  0  0  0  0  0  0  0  0  0
    4.2912    2.8159    1.2039 O   0  0  0  0  0  0  0  0  0  0  0  0
   -1.3536   -0.4952    0.3700 O   0  0  0  0  0  0  0  0  0  0  0  0
    2.5840    1.4195   -0.2461 O   0  0  0  0  0  0  0  0  0  0  0  0
   -3.8171   -1.1123    1.0076 P   0  0  0  0  0  5  0  0  0  0  0  0
    4.2137    1.8385    0.0513 P   0  0  0  0  0  5  0  0  0  0  0  0
 10  1  1  1
  2  4  1  0
  2  5  1  0
  3  4  2  0
  3  6  1  0
  4  8  1  0
  5  7  1  0
  5 22  1  1
  6  7  1  0
  6 23  1  6
  7 11  1  6
  8 12  2  0
  8 13  1  0
  9 10  1  0
  9 14  2  0
  9 15  1  0
 10 22  1  0
 10 24  1  0
 16 24  1  0
 17 24  1  0
 18 24  2  0
 19 25  1  0
 20 25  1  0
 21 25  2  0
 23 25  1  0
M  END
$$$$
