1X8T_RC1_A_501_
     RDKit          3D

 25 25  0  0  0  0  0  0  0  0999 V2000
   55.8030   11.9350   27.8550 C   0  0  0  0  0  0  0  0  0  0  0  0
   54.6220   11.1690   28.2080 C   0  0  0  0  0  0  0  0  0  0  0  0
   54.7650    9.9130   29.0750 C   0  0  0  0  0  0  0  0  0  0  0  0
   56.1310    9.8630   29.9330 C   0  0  0  0  0  0  0  0  0  0  0  0
   57.3210   10.0410   28.9260 C   0  0  0  0  0  0  0  0  0  0  0  0
   57.1860   11.5150   28.3320 C   0  0  0  0  0  0  0  0  0  0  0  0
   55.6940   13.1670   27.0270 C   0  0  0  0  0  0  0  0  0  0  0  0
   54.6210    8.6340   28.1460 O   0  0  0  0  0  0  0  0  0  0  0  0
   56.0810    8.5990   30.6110 O   0  0  0  0  0  0  0  0  0  0  0  0
   58.5540    9.9620   29.5950 O   0  0  0  0  0  0  0  0  0  0  0  0
   54.8180   13.2210   26.1670 O   0  0  0  0  0  0  0  0  0  0  0  0
   56.4840   14.0500   27.2860 O   0  0  0  0  0  0  0  0  0  0  0  0
   53.2190    7.7330   27.9710 P   0  0  0  0  0  0  0  0  0  0  0  0
   52.1840    8.6870   27.3720 O   0  0  0  0  0  0  0  0  0  0  0  0
   52.8950    7.2660   29.4410 O   0  0  0  0  0  0  0  0  0  0  0  0
   53.7400    6.6690   26.9740 O   0  0  0  0  0  0  0  0  0  0  0  0
   59.3510    8.7640   29.3120 C   0  0  0  0  0  0  0  0  0  0  0  0
   58.7320    7.2620   29.1790 C   0  0  0  0  0  0  0  0  0  0  0  0
   60.0790    9.3710   28.0400 C   0  0  0  0  0  0  0  0  0  0  0  0
   60.2010   10.3930   27.2930 O   0  0  0  0  0  0  0  0  0  0  0  0
   60.7090    8.2960   27.8390 O   0  0  0  0  0  0  0  0  0  0  0  0
   60.5990    8.7680   30.6810 P   0  0  0  0  0  0  0  0  0  0  0  0
   59.7550    8.2620   31.8700 O   0  0  0  0  0  0  0  0  0  0  0  0
   61.1880   10.1270   30.9690 O   0  0  0  0  0  0  0  0  0  0  0  0
   61.6650    7.6970   30.3420 O   0  0  0  0  0  0  0  0  0  0  0  0
  1  2  2  0
  2  3  1  0
  3  4  1  0
  4  5  1  0
  1  6  1  0
  5  6  1  0
  1  7  1  0
  3  8  1  0
  4  9  1  0
  5 10  1  0
  7 11  2  0
  7 12  1  0
  8 13  1  0
 13 14  2  0
 13 15  1  0
 13 16  1  0
 10 17  1  0
 17 18  1  0
 17 19  1  0
 19 20  2  0
 19 21  1  0
 17 22  1  0
 22 23  1  0
 22 24  2  0
 22 25  1  0
M  END
$$$$
