
     RDKit          3D

 12 12  0  0  0  0  0  0  0  0999 V2000
    0.7009    1.1314    0.3611 C   0  0  0  0  0  0  0  0  0  0  0  0
    0.3966   -1.2886   -0.1893 C   0  0  0  0  0  0  0  0  0  0  0  0
    1.2466   -0.0469   -0.0024 C   0  0  0  0  0  0  0  0  0  0  0  0
   -0.7897    1.3778    0.4415 C   0  0  2  0  0  0  0  0  0  0  0  0
   -1.0755   -0.9708   -0.4994 C   0  0  2  0  0  0  0  0  0  0  0  0
   -1.6132    0.0704    0.5038 C   0  0  2  0  0  0  0  0  0  0  0  0
    2.7196   -0.1757   -0.1023 C   0  0  0  0  0  0  0  0  0  0  0  0
   -1.2001    2.2015   -0.6223 O   0  0  0  0  0  0  0  0  0  0  0  0
   -1.8499   -2.1444   -0.4732 O   0  0  0  0  0  0  0  0  0  0  0  0
   -2.9832    0.3226    0.3060 O   0  0  0  0  0  0  0  0  0  0  0  0
    3.2421   -1.2988   -0.3366 O   0  0  0  0  0  0  0  0  0  0  0  0
    3.5427    0.9365    0.0600 O   0  0  0  0  0  0  0  0  0  0  0  0
  1  3  2  0
  1  4  1  0
  2  3  1  0
  2  5  1  0
  3  7  1  0
  4  6  1  0
  4  8  1  6
  5  6  1  0
  5  9  1  1
  6 10  1  6
  7 11  2  0
  7 12  1  0
M  END
$$$$
