3O88_BSH_B_2_AA
     RDKit          3D

 25 26  0  0  0  0  0  0  0  0999 V2000
   82.9980   10.8200   28.9780 O   0  0  0  0  0  0  0  0  0  0  0  0
   76.8100    5.9020   31.7540 O   0  0  0  0  0  0  0  0  0  0  0  0
   78.6460    4.0860   31.7450 O   0  0  0  0  0  0  0  0  0  0  0  0
   83.1620   10.3100   31.1470 O   0  0  0  0  0  0  0  0  0  0  0  0
   78.2150    4.2510   27.9380 O   0  0  0  0  0  0  0  0  0  0  0  0
   76.7980    6.0760   26.7610 O   0  0  0  0  0  0  0  0  0  0  0  0
   83.4480    5.6220   33.4920 C   0  0  0  0  0  0  0  0  0  0  0  0
   83.0960    6.5770   32.5410 C   0  0  0  0  0  0  0  0  0  0  0  0
   82.4590    5.0030   34.2510 C   0  0  0  0  0  0  0  0  0  0  0  0
   78.9010   10.3230   31.1440 C   0  0  0  0  0  0  0  0  0  0  0  0
   81.7590    6.9290   32.3520 C   0  0  0  0  0  0  0  0  0  0  0  0
   81.1250    5.3630   34.0570 C   0  0  0  0  0  0  0  0  0  0  0  0
   78.3330    9.4350   30.2360 C   0  0  0  0  0  0  0  0  0  0  0  0
   80.2590   10.6000   31.0630 C   0  0  0  0  0  0  0  0  0  0  0  0
   80.4660    9.1050   29.1640 C   0  0  0  0  0  0  0  0  0  0  0  0
   78.3990    7.8700   28.3360 C   0  0  0  0  0  0  0  0  0  0  0  0
   79.3330    6.6830   32.8810 C   0  0  0  0  0  0  0  0  0  0  0  0
   78.6960    6.0110   29.9690 N   0  0  0  0  0  0  0  0  0  0  0  0
   82.5200   10.3860   30.0710 C   0  0  0  0  0  0  0  0  0  0  0  0
   80.7450    6.3290   33.1280 C   0  0  0  0  0  0  0  0  0  0  0  0
   79.0900    8.8220   29.2410 C   0  0  0  0  0  0  0  0  0  0  0  0
   81.0460    9.9960   30.0810 C   0  0  0  0  0  0  0  0  0  0  0  0
   77.7990    6.6300   29.0280 C   0  0  0  0  0  0  0  0  0  0  0  0
   78.5080    5.7740   31.5360 S   0  0  0  0  0  0  0  0  0  0  0  0
   77.3390    5.4860   28.0380 B   0  0  0  0  0  0  0  0  0  0  0  0
  7  8  2  0
  7  9  1  0
  8 11  1  0
  9 12  2  0
 10 13  2  0
 10 14  1  0
  1 19  1  0
  4 19  2  0
 11 20  2  0
 12 20  1  0
 17 20  1  0
 13 21  1  0
 15 21  2  0
 16 21  1  0
 14 22  2  0
 15 22  1  0
 19 22  1  0
 16 23  1  0
 18 23  1  0
  2 24  2  0
  3 24  2  0
 17 24  1  0
 18 24  1  0
  5 25  1  0
  6 25  1  0
 23 25  1  0
M  END
$$$$
