1JIZ_CGS_B_999_
     RDKit          3D

 27 28  0  0  0  0  0  0  0  0999 V2000
   37.2700   44.7400   50.5040 N   0  0  0  0  0  0  0  0  0  0  0  0
   37.4180   43.4600   51.2470 C   0  0  0  0  0  0  0  0  0  0  0  0
   37.3410   44.7300   48.9840 C   0  0  0  0  0  0  0  0  0  0  0  0
   37.3570   46.1960   51.3450 S   0  0  0  0  0  0  0  0  0  0  0  0
   36.1390   42.7940   51.7460 C   0  0  0  0  0  0  0  0  0  0  0  0
   35.8170   42.6920   53.1180 C   0  0  0  0  0  0  0  0  0  0  0  0
   34.6170   42.0640   53.4840 C   0  0  0  0  0  0  0  0  0  0  0  0
   33.7730   41.5560   52.4850 C   0  0  0  0  0  0  0  0  0  0  0  0
   34.0550   41.6390   51.1760 N   0  0  0  0  0  0  0  0  0  0  0  0
   35.2050   42.2420   50.8350 C   0  0  0  0  0  0  0  0  0  0  0  0
   39.0230   46.5040   51.7660 C   0  0  0  0  0  0  0  0  0  0  0  0
   39.5710   45.9840   52.9880 C   0  0  0  0  0  0  0  0  0  0  0  0
   40.8850   46.2100   53.3570 C   0  0  0  0  0  0  0  0  0  0  0  0
   41.7640   46.9740   52.5390 C   0  0  0  0  0  0  0  0  0  0  0  0
   41.2480   47.4960   51.3290 C   0  0  0  0  0  0  0  0  0  0  0  0
   39.9390   47.2790   50.9460 C   0  0  0  0  0  0  0  0  0  0  0  0
   43.0620   47.1890   52.9210 O   0  0  0  0  0  0  0  0  0  0  0  0
   43.5640   46.8010   54.1940 C   0  0  0  0  0  0  0  0  0  0  0  0
   36.8910   47.2470   50.4560 O   0  0  0  0  0  0  0  0  0  0  0  0
   36.6300   46.0750   52.5810 O   0  0  0  0  0  0  0  0  0  0  0  0
   38.7950   44.2770   48.6160 C   0  0  0  0  0  0  0  0  0  0  0  0
   39.5870   45.2640   48.0040 N   0  0  0  0  0  0  0  0  0  0  0  0
   36.3300   43.9570   48.0640 C   0  0  0  0  0  0  0  0  0  0  0  0
   36.6660   43.9190   46.5600 C   0  0  0  0  0  0  0  0  0  0  0  0
   34.8870   44.5000   48.2260 C   0  0  0  0  0  0  0  0  0  0  0  0
   39.2890   43.1710   48.8070 O   0  0  0  0  0  0  0  0  0  0  0  0
   40.8220   45.0010   47.6500 O   0  0  0  0  0  0  0  0  0  0  0  0
  1  2  1  0
  1  3  1  0
  1  4  1  0
  2  5  1  0
  5  6  2  0
  6  7  1  0
  7  8  2  0
  8  9  1  0
  5 10  1  0
  9 10  2  0
  4 11  1  0
 11 12  2  0
 12 13  1  0
 13 14  2  0
 14 15  1  0
 11 16  1  0
 15 16  2  0
 14 17  1  0
 17 18  1  0
  4 19  2  0
  4 20  2  0
  3 21  1  0
 21 22  1  0
  3 23  1  0
 23 24  1  0
 23 25  1  0
 21 26  2  0
 22 27  1  0
M  END
$$$$
