2WMX_ZY6_A_1270_
     RDKit          3D

 23 26  0  0  0  0  0  0  0  0999 V2000
   19.6002   -1.0901   10.9238 C   0  0  0  0  0  0  0  0  0  0  0  0
   20.8877   -1.5997   10.9652 C   0  0  0  0  0  0  0  0  0  0  0  0
   21.5951   -1.7703    9.7899 C   0  0  0  0  0  0  0  0  0  0  0  0
   21.0079   -1.4302    8.5832 C   0  0  0  0  0  0  0  0  0  0  0  0
   19.7174   -0.9226    8.5468 C   0  0  0  0  0  0  0  0  0  0  0  0
   18.9989   -0.7669    9.7183 C   0  0  0  0  0  0  0  0  0  0  0  0
   17.7216   -0.2301    9.7066 C   0  0  0  0  0  0  0  0  0  0  0  0
   17.5635    1.0132    9.1194 C   0  0  0  0  0  0  0  0  0  0  0  0
   16.3956    1.6149    9.0749 N   0  0  0  0  0  0  0  0  0  0  0  0
   15.3113    1.0488    9.6110 C   0  0  0  0  0  0  0  0  0  0  0  0
   14.0502    1.4546    9.7146 N   0  0  0  0  0  0  0  0  0  0  0  0
   13.4038    0.5747   10.2882 N   0  0  0  0  0  0  0  0  0  0  0  0
   14.1791   -0.4523   10.6305 C   0  0  0  0  0  0  0  0  0  0  0  0
   15.4045   -0.1869   10.2162 C   0  0  0  0  0  0  0  0  0  0  0  0
   16.6259   -0.8538   10.2823 C   0  0  0  0  0  0  0  0  0  0  0  0
   16.7340   -2.1115   10.9017 N   0  0  0  0  0  0  0  0  0  0  0  0
   17.9539   -2.5359   11.6164 C   0  0  0  0  0  0  0  0  0  0  0  0
   15.5964   -3.0429   10.8804 C   0  0  0  0  0  0  0  0  0  0  0  0
   15.4630   -3.7677   12.2189 C   0  0  0  0  0  0  0  0  0  0  0  0
   16.7289   -4.2908   12.5935 O   0  0  0  0  0  0  0  0  0  0  0  0
   17.5658   -3.2090   12.9396 C   0  0  0  0  0  0  0  0  0  0  0  0
   18.7417   -3.8074   13.7311 C   0  0  0  0  0  0  0  0  0  0  0  0
   19.4328   -2.7871   14.5361 N   0  0  0  0  0  0  0  0  0  0  0  0
  1  2  2  0
  2  3  1  0
  3  4  2  0
  4  5  1  0
  1  6  1  0
  5  6  2  0
  6  7  1  0
  7  8  2  0
  8  9  1  0
  9 10  2  0
 10 11  1  0
 11 12  1  0
 12 13  2  0
 10 14  1  0
 13 14  1  0
  7 15  1  0
 14 15  2  0
 15 16  1  0
 16 17  1  0
 16 18  1  0
 18 19  1  0
 19 20  1  0
 17 21  1  0
 20 21  1  0
 21 22  1  0
 22 23  1  0
M  END
$$$$
