3HV7_1AU_A_361_
     RDKit          3D

 30 33  0  0  0  0  0  0  0  0999 V2000
   12.2908   -3.6146    1.1180 C   0  0  0  0  0  0  0  0  0  0  0  0
   11.7267   -4.9000    1.2028 C   0  0  0  0  0  0  0  0  0  0  0  0
   10.5856   -5.0747    1.9599 C   0  0  0  0  0  0  0  0  0  0  0  0
    9.9667   -3.9821    2.5879 C   0  0  0  0  0  0  0  0  0  0  0  0
   10.5151   -2.7285    2.5107 C   0  0  0  0  0  0  0  0  0  0  0  0
   11.6861   -2.5303    1.7794 C   0  0  0  0  0  0  0  0  0  0  0  0
   12.2287   -1.2564    1.7234 C   0  0  0  0  0  0  0  0  0  0  0  0
   13.4056   -1.0718    0.9915 C   0  0  0  0  0  0  0  0  0  0  0  0
   14.0215   -2.1507    0.3503 C   0  0  0  0  0  0  0  0  0  0  0  0
   13.4627   -3.4377    0.4053 C   0  0  0  0  0  0  0  0  0  0  0  0
   14.0448   -4.4727   -0.2512 N   0  0  0  0  0  0  0  0  0  0  0  0
   15.3041   -4.8356   -0.0529 C   0  0  0  0  0  0  0  0  0  0  0  0
   16.0329   -4.2775    0.7842 O   0  0  0  0  0  0  0  0  0  0  0  0
   15.7275   -5.8345   -0.8390 N   0  0  0  0  0  0  0  0  0  0  0  0
   16.9393   -6.4185   -0.7792 C   0  0  0  0  0  0  0  0  0  0  0  0
   17.6944   -6.6318    0.3123 C   0  0  0  0  0  0  0  0  0  0  0  0
   18.7742   -7.3271   -0.1580 C   0  0  0  0  0  0  0  0  0  0  0  0
   20.0105   -7.8137    0.6529 C   0  0  0  0  0  0  0  0  0  0  0  0
   19.5664   -9.0160    1.5444 C   0  0  0  0  0  0  0  0  0  0  0  0
   21.2194   -8.1927   -0.2274 C   0  0  0  0  0  0  0  0  0  0  0  0
   20.5477   -6.6805    1.4999 C   0  0  0  0  0  0  0  0  0  0  0  0
   18.6372   -7.5170   -1.4738 N   0  0  0  0  0  0  0  0  0  0  0  0
   17.5406   -7.0081   -1.8287 N   0  0  0  0  0  0  0  0  0  0  0  0
   17.0908   -7.0301   -3.1184 C   0  0  0  0  0  0  0  0  0  0  0  0
   16.6353   -5.8785   -3.8156 C   0  0  0  0  0  0  0  0  0  0  0  0
   17.1610   -8.2443   -3.8058 C   0  0  0  0  0  0  0  0  0  0  0  0
   16.7445   -8.3507   -5.1364 C   0  0  0  0  0  0  0  0  0  0  0  0
   16.2929   -7.2138   -5.8194 C   0  0  0  0  0  0  0  0  0  0  0  0
   16.2264   -5.9891   -5.1651 C   0  0  0  0  0  0  0  0  0  0  0  0
   15.7543   -4.9539   -5.8507 N   0  0  0  0  0  0  0  0  0  0  0  0
  1  2  2  0
  2  3  1  0
  3  4  2  0
  4  5  1  0
  1  6  1  0
  5  6  2  0
  6  7  1  0
  7  8  2  0
  8  9  1  0
  1 10  1  0
  9 10  2  0
 10 11  1  0
 11 12  1  0
 12 13  2  0
 12 14  1  0
 14 15  1  0
 15 16  2  0
 16 17  1  0
 17 18  1  0
 18 19  1  0
 18 20  1  0
 18 21  1  0
 17 22  2  0
 15 23  1  0
 22 23  1  0
 23 24  1  0
 24 25  2  0
 24 26  1  0
 26 27  2  0
 27 28  1  0
 25 29  1  0
 28 29  2  0
 29 30  1  0
M  END
$$$$
