3HV5_R24_A_361_
     RDKit          3D

 40 44  0  0  0  0  0  0  0  0999 V2000
   11.8370    3.7140    2.1510 C   0  0  0  0  0  0  0  0  0  0  0  0
   11.7470    4.2910    3.4190 C   0  0  0  0  0  0  0  0  0  0  0  0
   11.8230    3.4910    4.5500 C   0  0  0  0  0  0  0  0  0  0  0  0
   12.0450    2.3280    2.0140 C   0  0  0  0  0  0  0  0  0  0  0  0
   12.1270    1.5230    3.1500 C   0  0  0  0  0  0  0  0  0  0  0  0
   12.0060    2.1140    4.4190 C   0  0  0  0  0  0  0  0  0  0  0  0
   12.2810    0.1230    3.0480 C   0  0  0  0  0  0  0  0  0  0  0  0
   12.3850   -0.5940    4.2410 C   0  0  0  0  0  0  0  0  0  0  0  0
   12.2760    0.0660    5.4690 C   0  0  0  0  0  0  0  0  0  0  0  0
   12.2260   -1.8000    1.5690 C   0  0  0  0  0  0  0  0  0  0  0  0
   13.2190   -2.4970    0.8330 C   0  0  0  0  0  0  0  0  0  0  0  0
   13.0390   -3.8530    0.5450 C   0  0  0  0  0  0  0  0  0  0  0  0
   11.8880   -4.5210    1.0080 C   0  0  0  0  0  0  0  0  0  0  0  0
   11.7400    4.5620    1.0920 N   0  0  0  0  0  0  0  0  0  0  0  0
   11.5060    5.8800    1.3500 O   0  0  0  0  0  0  0  0  0  0  0  0
   11.8470    4.1800   -0.2120 O   0  0  0  0  0  0  0  0  0  0  0  0
   12.0880    1.3800    5.5290 N   0  0  0  0  0  0  0  0  0  0  0  0
   12.3830   -0.4740    1.8230 N   0  0  0  0  0  0  0  0  0  0  0  0
   11.0890   -2.4850    2.0200 C   0  0  0  0  0  0  0  0  0  0  0  0
   10.9260   -3.8480    1.7580 C   0  0  0  0  0  0  0  0  0  0  0  0
   13.8790   -4.6330   -0.1550 N   0  0  0  0  0  0  0  0  0  0  0  0
   15.1410   -4.9080    0.0910 C   0  0  0  0  0  0  0  0  0  0  0  0
   15.7510   -4.4190    1.0370 O   0  0  0  0  0  0  0  0  0  0  0  0
   15.6800   -5.7480   -0.7960 N   0  0  0  0  0  0  0  0  0  0  0  0
   16.9110   -6.3110   -0.7910 C   0  0  0  0  0  0  0  0  0  0  0  0
   17.7020   -6.5180    0.2840 C   0  0  0  0  0  0  0  0  0  0  0  0
   18.7590   -7.2240   -0.1750 C   0  0  0  0  0  0  0  0  0  0  0  0
   20.0070   -7.6850    0.6290 C   0  0  0  0  0  0  0  0  0  0  0  0
   19.5130   -8.8420    1.4710 C   0  0  0  0  0  0  0  0  0  0  0  0
   20.5810   -6.5510    1.4890 C   0  0  0  0  0  0  0  0  0  0  0  0
   21.1690   -8.2160   -0.2190 C   0  0  0  0  0  0  0  0  0  0  0  0
   18.5780   -7.4530   -1.4640 N   0  0  0  0  0  0  0  0  0  0  0  0
   17.4850   -6.9690   -1.8120 N   0  0  0  0  0  0  0  0  0  0  0  0
   17.0400   -7.0990   -3.0650 C   0  0  0  0  0  0  0  0  0  0  0  0
   16.5300   -6.0280   -3.8010 C   0  0  0  0  0  0  0  0  0  0  0  0
   16.1000   -6.2260   -5.1210 C   0  0  0  0  0  0  0  0  0  0  0  0
   16.1760   -7.4790   -5.7040 C   0  0  0  0  0  0  0  0  0  0  0  0
   15.7030   -7.6640   -7.1520 C   0  0  0  0  0  0  0  0  0  0  0  0
   16.6930   -8.5590   -4.9900 C   0  0  0  0  0  0  0  0  0  0  0  0
   17.1210   -8.3840   -3.6540 C   0  0  0  0  0  0  0  0  0  0  0  0
  1  2  2  0
  2  3  1  0
  1  4  1  0
  4  5  2  0
  5  6  1  0
  3  6  2  0
  5  7  1  0
  7  8  2  0
  8  9  1  0
 10 11  2  0
 11 12  1  0
 12 13  2  0
  1 14  1  0
 14 15  2  0
 14 16  1  0
  6 17  1  0
  9 17  2  0
 10 18  1  0
  7 18  1  0
 10 19  1  0
 13 20  1  0
 19 20  2  0
 12 21  1  0
 21 22  1  0
 22 23  2  0
 22 24  1  0
 24 25  1  0
 25 26  2  0
 26 27  1  0
 27 28  1  0
 28 29  1  0
 28 30  1  0
 28 31  1  0
 27 32  2  0
 25 33  1  0
 32 33  1  0
 33 34  1  0
 34 35  2  0
 35 36  1  0
 36 37  2  0
 37 38  1  0
 37 39  1  0
 39 40  2  0
 34 40  1  0
M  CHG  2  14   1  16  -1
M  END
$$$$
