
     RDKit          3D

 30 33  0  0  0  0  0  0  0  0999 V2000
   -3.3814   -3.9062   -1.7008 C   0  0  0  0  0  0  0  0  0  0  0  0
   -5.0901   -2.6369   -0.3575 C   0  0  0  0  0  0  0  0  0  0  0  0
   -4.0554   -1.5965   -2.4004 C   0  0  0  0  0  0  0  0  0  0  0  0
    4.4802    0.7737   -3.0404 C   0  0  0  0  0  0  0  0  0  0  0  0
    3.4475   -0.1462   -2.8513 C   0  0  0  0  0  0  0  0  0  0  0  0
    4.0174    2.2730    1.5507 C   0  0  0  0  0  0  0  0  0  0  0  0
   -0.4687    2.4127    2.9452 C   0  0  0  0  0  0  0  0  0  0  0  0
    4.8899    1.5964   -1.9888 C   0  0  0  0  0  0  0  0  0  0  0  0
    4.6586    2.3466    0.3143 C   0  0  0  0  0  0  0  0  0  0  0  0
   -0.2424    3.4222    2.0064 C   0  0  0  0  0  0  0  0  0  0  0  0
   -0.9139    1.1551    2.5298 C   0  0  0  0  0  0  0  0  0  0  0  0
    2.8182   -0.2532   -1.6087 C   0  0  0  0  0  0  0  0  0  0  0  0
    2.9908    1.3515    1.7571 C   0  0  0  0  0  0  0  0  0  0  0  0
   -0.9221    1.9200    0.2294 C   0  0  0  0  0  0  0  0  0  0  0  0
   -1.8568   -2.6031    0.5407 C   0  0  0  0  0  0  0  0  0  0  0  0
    4.2644    1.5051   -0.7354 C   0  0  0  0  0  0  0  0  0  0  0  0
   -0.4695    3.1811    0.6444 C   0  0  0  0  0  0  0  0  0  0  0  0
   -1.1284    0.8953    1.1661 C   0  0  0  0  0  0  0  0  0  0  0  0
    3.2181    0.5668   -0.5345 C   0  0  0  0  0  0  0  0  0  0  0  0
    2.6026    0.4697    0.7331 C   0  0  0  0  0  0  0  0  0  0  0  0
   -2.7120   -1.9132   -0.3090 C   0  0  0  0  0  0  0  0  0  0  0  0
   -1.1202   -1.6134    1.1505 C   0  0  0  0  0  0  0  0  0  0  0  0
    1.2282   -1.1526    1.9610 C   0  0  0  0  0  0  0  0  0  0  0  0
   -3.7992   -2.5125   -1.1852 C   0  0  0  0  0  0  0  0  0  0  0  0
   -0.2336    4.2127   -0.3166 N   0  0  0  0  0  0  0  0  0  0  0  0
    1.4823   -0.4088    0.9211 N   0  0  0  0  0  0  0  0  0  0  0  0
   -0.0224   -1.8494    2.0463 N   0  0  0  0  0  0  0  0  0  0  0  0
   -2.5171   -0.5836   -0.1617 N   0  0  0  0  0  0  0  0  0  0  0  0
   -1.5486   -0.4048    0.7224 N   0  0  0  0  0  0  0  0  0  0  0  0
    2.1619   -1.3309    2.9845 O   0  0  0  0  0  0  0  0  0  0  0  0
  1 24  1  0
  2 24  1  0
  3 24  1  0
  4  5  2  0
  4  8  1  0
  5 12  1  0
  6  9  2  0
  6 13  1  0
  7 10  2  0
  7 11  1  0
  8 16  2  0
  9 16  1  0
 10 17  1  0
 11 18  2  0
 12 19  2  0
 13 20  2  0
 14 17  2  0
 14 18  1  0
 15 21  1  0
 15 22  2  0
 16 19  1  0
 17 25  1  0
 18 29  1  0
 19 20  1  0
 20 26  1  0
 21 24  1  0
 21 28  2  0
 22 27  1  0
 22 29  1  0
 23 26  2  3
 23 27  1  0
 23 30  1  0
 28 29  1  0
M  END
$$$$
