4F09_JAK_A_1201_
     RDKit          3D

 19 22  0  0  0  0  0  0  0  0999 V2000
    4.5437   45.0116   26.7587 C   0  0  0  0  0  0  0  0  0  0  0  0
    4.4908   45.3785   25.3282 C   0  0  0  0  0  0  0  0  0  0  0  0
    4.7851   44.5933   24.3486 N   0  0  0  0  0  0  0  0  0  0  0  0
    4.6164   45.3451   23.2038 C   0  0  0  0  0  0  0  0  0  0  0  0
    4.8544   45.0324   21.8758 C   0  0  0  0  0  0  0  0  0  0  0  0
    4.7176   45.9372   20.9145 N   0  0  0  0  0  0  0  0  0  0  0  0
    4.3315   47.1642   21.2753 C   0  0  0  0  0  0  0  0  0  0  0  0
    4.0476   47.5688   22.5732 C   0  0  0  0  0  0  0  0  0  0  0  0
    4.2073   46.5985   23.5679 C   0  0  0  0  0  0  0  0  0  0  0  0
    4.1420   46.5651   24.9416 N   0  0  0  0  0  0  0  0  0  0  0  0
    3.8546   47.6468   25.8850 C   0  0  0  0  0  0  0  0  0  0  0  0
    2.4564   48.1822   25.7775 C   0  0  0  0  0  0  0  0  0  0  0  0
    2.2616   49.1019   26.9344 C   0  0  0  0  0  0  0  0  0  0  0  0
    3.1826   50.2028   27.0637 N   0  0  0  0  0  0  0  0  0  0  0  0
    4.5674   49.8032   26.8685 C   0  0  0  0  0  0  0  0  0  0  0  0
    4.8654   48.7673   25.8225 C   0  0  0  0  0  0  0  0  0  0  0  0
    3.6661   48.9455   22.4844 C   0  0  0  0  0  0  0  0  0  0  0  0
    3.7483   49.2925   21.1918 C   0  0  0  0  0  0  0  0  0  0  0  0
    4.1567   48.2352   20.4577 N   0  0  0  0  0  0  0  0  0  0  0  0
  1  2  1  0
  2  3  2  0
  3  4  1  0
  4  5  2  0
  5  6  1  0
  6  7  2  0
  7  8  1  0
  4  9  1  0
  8  9  2  0
  2 10  1  0
  9 10  1  0
 10 11  1  0
 11 12  1  0
 12 13  1  0
 13 14  1  0
 14 15  1  0
 11 16  1  0
 15 16  1  0
  8 17  1  0
 17 18  2  0
  7 19  1  0
 18 19  1  0
M  END
$$$$
