1GPN_HUB_A_1538_
     RDKit          3D

 19 22  0  0  0  0  0  0  0  0999 V2000
    0.8776   68.6135   61.3700 C   0  0  0  0  0  0  0  0  0  0  0  0
    0.2401   69.0491   60.4086 O   0  0  0  0  0  0  0  0  0  0  0  0
    2.1651   68.1177   61.1799 N   0  0  0  0  0  0  0  0  0  0  0  0
    0.3627   68.5790   62.7272 C   0  0  0  0  0  0  0  0  0  0  0  0
    1.1310   68.0811   63.7486 C   0  0  0  0  0  0  0  0  0  0  0  0
    2.4666   67.5747   63.5491 C   0  0  0  0  0  0  0  0  0  0  0  0
    2.9717   67.5891   62.2029 C   0  0  0  0  0  0  0  0  0  0  0  0
    4.3441   67.0776   61.8092 C   0  0  0  0  0  0  0  0  0  0  0  0
    5.1490   66.3964   63.0236 C   0  0  0  0  0  0  0  0  0  0  0  0
    4.7382   64.9107   63.1932 C   0  0  0  0  0  0  0  0  0  0  0  0
    4.9571   69.3141   65.6139 C   0  0  0  0  0  0  0  0  0  0  0  0
    5.2608   68.6029   64.2845 C   0  0  0  0  0  0  0  0  0  0  0  0
    4.8644   67.1177   64.3630 C   0  0  0  0  0  0  0  0  0  0  0  0
    3.3598   66.9901   64.7544 C   0  0  0  0  0  0  0  0  0  0  0  0
    3.0857   67.7217   66.0477 N   0  0  0  0  0  0  0  0  0  0  0  0
    2.9681   65.4876   64.9318 C   0  0  0  0  0  0  0  0  0  0  0  0
    3.7448   64.5023   64.0663 C   0  0  0  0  0  0  0  0  0  0  0  0
    3.3348   63.0645   64.2591 C   0  0  0  0  0  0  0  0  0  0  0  0
    3.4862   69.2319   65.9932 C   0  0  0  0  0  0  0  0  0  0  0  0
  1  2  2  0
  1  3  1  0
  1  4  1  0
  4  5  2  0
  5  6  1  0
  3  7  1  0
  6  7  2  0
  7  8  1  0
  8  9  1  0
  9 10  1  0
 11 12  1  0
  9 13  1  0
 12 13  1  0
  6 14  1  0
 13 14  1  0
 14 15  1  0
 14 16  1  0
 10 17  2  0
 16 17  1  0
 17 18  1  0
 11 19  1  0
 15 19  1  0
M  END
$$$$
