
     RDKit          3D

 35 42  0  0  0  0  0  0  0  0999 V2000
    2.5784   -0.9656   -2.2601 C   0  0  0  0  0  0  0  0  0  0  0  0
    5.0389    1.6841    0.8320 C   0  0  0  0  0  0  0  0  0  0  0  0
    1.9590   -0.6985    2.1151 C   0  0  0  0  0  0  0  0  0  0  0  0
   -3.7265    4.2204    0.4452 C   0  0  0  0  0  0  0  0  0  0  0  0
    0.1434   -5.2325    0.1357 C   0  0  0  0  0  0  0  0  0  0  0  0
   -2.5510    4.7960   -0.0707 C   0  0  0  0  0  0  0  0  0  0  0  0
    1.4216   -4.7793   -0.2351 C   0  0  0  0  0  0  0  0  0  0  0  0
   -3.8540    2.8254    0.5466 C   0  0  0  0  0  0  0  0  0  0  0  0
   -0.9371   -4.3423    0.1789 C   0  0  0  0  0  0  0  0  0  0  0  0
   -1.4862    3.9833   -0.4862 C   0  0  0  0  0  0  0  0  0  0  0  0
    1.6307   -3.4360   -0.5901 C   0  0  0  0  0  0  0  0  0  0  0  0
    1.6190    2.5496   -0.4435 C   0  0  0  0  0  0  0  0  0  0  0  0
   -3.8104   -2.7444    0.8642 C   0  0  0  0  0  0  0  0  0  0  0  0
   -2.7883    2.0258    0.1198 C   0  0  0  0  0  0  0  0  0  0  0  0
   -0.7095   -3.0148   -0.1885 C   0  0  0  0  0  0  0  0  0  0  0  0
   -2.8350   -1.7433    0.3475 C   0  0  0  0  0  0  0  0  0  0  0  0
    2.8465    1.6603   -0.2513 C   0  0  2  0  0  0  0  0  0  0  0  0
   -1.6253    2.5942   -0.3745 C   0  0  0  0  0  0  0  0  0  0  0  0
    0.5330   -2.5570   -0.6006 C   0  0  0  0  0  0  0  0  0  0  0  0
    0.5716    1.9036   -1.3833 C   0  0  2  0  0  0  0  0  0  0  0  0
   -1.5302   -1.9170   -0.1337 C   0  0  0  0  0  0  0  0  0  0  0  0
   -2.5942    0.6505    0.0808 C   0  0  0  0  0  0  0  0  0  0  0  0
   -3.3740   -0.4721    0.4477 C   0  0  0  0  0  0  0  0  0  0  0  0
   -1.3004    0.4665   -0.4285 C   0  0  0  0  0  0  0  0  0  0  0  0
   -0.7633   -0.8338   -0.5406 C   0  0  0  0  0  0  0  0  0  0  0  0
    2.3655    0.2198   -0.0024 C   0  0  2  0  0  0  0  0  0  0  0  0
   -4.7133   -0.6689    0.9891 C   0  0  0  0  0  0  0  0  0  0  0  0
    1.5901   -0.2848   -1.2762 C   0  0  2  0  0  0  0  0  0  0  0  0
    3.6661    2.1963    0.8532 N   0  0  0  0  0  0  0  0  0  0  0  0
   -4.9635   -1.9192    1.2200 N   0  0  0  0  0  0  0  0  0  0  0  0
   -0.7104    1.6526   -0.7136 N   0  0  0  0  0  0  0  0  0  0  0  0
    0.5029   -1.2122   -0.8726 N   0  0  0  0  0  0  0  0  0  0  0  0
   -5.6549    0.3215    1.2250 O   0  0  0  0  0  0  0  0  0  0  0  0
    1.5063    0.2096    1.1346 O   0  0  0  0  0  0  0  0  0  0  0  0
    1.0279    0.7577   -2.0730 O   0  0  0  0  0  0  0  0  0  0  0  0
 28  1  1  6
  2 29  1  0
  3 34  1  0
  4  6  2  0
  4  8  1  0
  5  7  2  0
  5  9  1  0
  6 10  1  0
  7 11  1  0
  8 14  2  0
  9 15  2  0
 10 18  2  0
 11 19  2  0
 12 17  1  0
 20 12  1  1
 13 16  1  0
 13 30  1  0
 14 18  1  0
 14 22  1  0
 15 19  1  0
 15 21  1  0
 16 21  2  0
 16 23  1  0
 17 26  1  0
 17 29  1  1
 18 31  1  0
 19 32  1  0
 20 31  1  0
 20 35  1  0
 21 25  1  0
 22 23  2  0
 22 24  1  0
 23 27  1  0
 24 25  2  0
 24 31  1  0
 25 32  1  0
 26 28  1  0
 26 34  1  1
 27 30  2  0
 27 33  1  0
 28 32  1  0
 28 35  1  0
M  END
$$$$
