1YHS_STU_A_306_
     RDKit          3D

 35 42  0  0  0  0  0  0  0  0999 V2000
  -19.4280   36.1510   -4.0800 O   0  0  0  0  0  0  0  0  0  0  0  0
  -19.3950   37.5300   -4.2450 C   0  0  0  0  0  0  0  0  0  0  0  0
  -17.9710   38.0830   -4.5450 C   0  0  0  0  0  0  0  0  0  0  0  0
  -17.1120   37.0040   -5.2070 C   0  0  0  0  0  0  0  0  0  0  0  0
  -16.9360   35.8110   -4.2280 C   0  0  0  0  0  0  0  0  0  0  0  0
  -18.3010   35.4770   -3.4590 C   0  0  0  0  0  0  0  0  0  0  0  0
  -18.6330   33.9860   -3.7300 C   0  0  0  0  0  0  0  0  0  0  0  0
  -18.2290   35.7970   -1.9440 N   0  0  0  0  0  0  0  0  0  0  0  0
  -18.9440   36.7940   -1.2360 C   0  0  0  0  0  0  0  0  0  0  0  0
  -19.8090   37.8480   -1.7900 C   0  0  0  0  0  0  0  0  0  0  0  0
  -20.5160   38.7810   -0.9270 C   0  0  0  0  0  0  0  0  0  0  0  0
  -20.3280   38.6580    0.5320 C   0  0  0  0  0  0  0  0  0  0  0  0
  -19.4710   37.6630    1.1090 C   0  0  0  0  0  0  0  0  0  0  0  0
  -18.7700   36.7070    0.2050 C   0  0  0  0  0  0  0  0  0  0  0  0
  -17.8100   35.6060    0.3860 C   0  0  0  0  0  0  0  0  0  0  0  0
  -17.4740   35.0930   -0.9550 C   0  0  0  0  0  0  0  0  0  0  0  0
  -16.4820   34.0080   -1.1110 C   0  0  0  0  0  0  0  0  0  0  0  0
  -15.8490   33.4570    0.0910 C   0  0  0  0  0  0  0  0  0  0  0  0
  -16.2100   33.9720    1.4150 C   0  0  0  0  0  0  0  0  0  0  0  0
  -17.1900   35.0480    1.5810 C   0  0  0  0  0  0  0  0  0  0  0  0
  -19.4500   37.8590    2.6070 C   0  0  0  0  0  0  0  0  0  0  0  0
  -20.2620   39.0860    2.7680 N   0  0  0  0  0  0  0  0  0  0  0  0
  -20.8350   39.4820    1.6050 C   0  0  0  0  0  0  0  0  0  0  0  0
  -21.6510   40.3890    1.4550 O   0  0  0  0  0  0  0  0  0  0  0  0
  -21.2300   39.7230   -1.8260 C   0  0  0  0  0  0  0  0  0  0  0  0
  -20.9280   39.2780   -3.1940 C   0  0  0  0  0  0  0  0  0  0  0  0
  -21.5190   39.9870   -4.3630 C   0  0  0  0  0  0  0  0  0  0  0  0
  -22.4160   41.1410   -4.1280 C   0  0  0  0  0  0  0  0  0  0  0  0
  -22.7190   41.5830   -2.7470 C   0  0  0  0  0  0  0  0  0  0  0  0
  -22.1230   40.8720   -1.5800 C   0  0  0  0  0  0  0  0  0  0  0  0
  -20.0550   38.1300   -3.1300 N   0  0  0  0  0  0  0  0  0  0  0  0
  -15.9350   36.1960   -3.2830 O   0  0  0  0  0  0  0  0  0  0  0  0
  -14.6700   35.5240   -3.4470 C   0  0  0  0  0  0  0  0  0  0  0  0
  -15.8810   37.6390   -5.7070 N   0  0  0  0  0  0  0  0  0  0  0  0
  -15.3380   36.6840   -6.6890 C   0  0  0  0  0  0  0  0  0  0  0  0
  1  2  1  0
  2  3  1  0
  3  4  1  0
  4  5  1  0
  1  6  1  0
  5  6  1  0
  6  7  1  0
  6  8  1  0
  8  9  1  0
  9 10  2  0
 10 11  1  0
 11 12  2  0
 12 13  1  0
  9 14  1  0
 13 14  2  0
 14 15  1  0
  8 16  1  0
 15 16  2  0
 16 17  1  0
 17 18  2  0
 18 19  1  0
 15 20  1  0
 19 20  2  0
 13 21  1  0
 21 22  1  0
 12 23  1  0
 22 23  1  0
 23 24  2  0
 11 25  1  0
 25 26  2  0
 26 27  1  0
 27 28  2  0
 28 29  1  0
 25 30  1  0
 29 30  2  0
  2 31  1  0
 10 31  1  0
 26 31  1  0
  5 32  1  0
 32 33  1  0
  4 34  1  0
 34 35  1  0
M  END
$$$$
