
     RDKit          3D

 15 16  0  0  0  0  0  0  0  0999 V2000
    1.4988   -1.0619    0.9110 C   0  0  0  0  0  0  0  0  0  0  0  0
    1.8653   -0.1183   -0.0626 C   0  0  0  0  0  0  0  0  0  0  0  0
   -0.7833   -0.5187    0.5915 C   0  0  0  0  0  0  0  0  0  0  0  0
   -0.4227    0.4261   -0.3828 C   0  0  0  0  0  0  0  0  0  0  0  0
   -2.1405   -0.6875    0.8904 C   0  0  0  0  0  0  0  0  0  0  0  0
    3.2767    0.1027   -0.4188 C   0  0  0  0  0  0  0  0  0  0  0  0
   -2.7011    0.9750   -0.7084 C   0  0  0  0  0  0  0  0  0  0  0  0
   -3.6173    1.6667   -1.3076 N   0  0  0  0  0  0  0  0  0  0  0  0
    0.1858   -1.2398    1.2147 N   0  0  0  0  0  0  0  0  0  0  0  0
    0.8911    0.6019   -0.6846 N   0  0  0  0  0  0  0  0  0  0  0  0
   -1.3825    1.1543   -1.0141 N   0  0  0  0  0  0  0  0  0  0  0  0
   -3.0633    0.0629    0.2335 N   0  0  0  0  0  0  0  0  0  0  0  0
   -2.5680   -1.6076    1.8466 O   0  0  0  0  0  0  0  0  0  0  0  0
    3.5776    0.9559   -1.2962 O   0  0  0  0  0  0  0  0  0  0  0  0
    4.2854   -0.6249    0.2072 O   0  0  0  0  0  0  0  0  0  0  0  0
  1  2  2  0
  1  9  1  0
  2  6  1  0
  2 10  1  0
  3  4  1  0
  3  5  1  0
  3  9  2  0
  4 10  2  0
  4 11  1  0
  5 12  2  0
  5 13  1  0
  6 14  2  0
  6 15  1  0
  7  8  2  3
  7 11  1  0
  7 12  1  0
M  END
$$$$
