4HV7_19J_X_301_
     RDKit          3D

 23 24  0  0  0  0  0  0  0  0999 V2000
   23.8700   -8.8480   -6.3700 C   0  0  0  0  0  0  0  0  0  0  0  0
   24.2250   -8.1530   -5.2580 N   0  0  0  0  0  0  0  0  0  0  0  0
   21.8830   -8.3280   -9.2430 O   0  0  0  0  0  0  0  0  0  0  0  0
   22.6450   -8.8680   -8.4120 C   0  0  0  0  0  0  0  0  0  0  0  0
   23.0550   -8.2390   -7.2910 N   0  0  0  0  0  0  0  0  0  0  0  0
   23.1370  -10.2310   -8.6420 C   0  0  0  0  0  0  0  0  0  0  0  0
   24.3500  -10.0950   -6.5310 N   0  0  0  0  0  0  0  0  0  0  0  0
   25.3720  -14.6180   -8.2330 O   0  0  0  0  0  0  0  0  0  0  0  0
   24.0330  -10.8070   -7.6270 C   0  0  0  0  0  0  0  0  0  0  0  0
   24.4920  -12.0530   -7.8230 N   0  0  0  0  0  0  0  0  0  0  0  0
   24.1430  -12.7410   -8.9250 C   0  0  0  0  0  0  0  0  0  0  0  0
   22.8010  -10.9420   -9.7360 N   0  0  0  0  0  0  0  0  0  0  0  0
   23.3000  -12.1810   -9.8850 C   0  0  0  0  0  0  0  0  0  0  0  0
   24.7240  -14.1080   -9.1210 C   0  0  0  0  0  0  0  0  0  0  0  0
   24.5970  -14.6950  -10.3000 N   0  0  0  0  0  0  0  0  0  0  0  0
   25.2720  -15.9400  -10.6230 C   0  0  0  0  0  0  0  0  0  0  0  0
   26.7740  -15.8320  -10.8240 C   0  0  0  0  0  0  0  0  0  0  0  0
   27.4630  -16.8410  -10.8340 O   0  0  0  0  0  0  0  0  0  0  0  0
   27.3060  -14.6220  -10.9840 N   0  0  0  0  0  0  0  0  0  0  0  0
   28.6910  -14.4470  -11.3920 C   0  0  0  0  0  0  0  0  0  0  0  0
   28.8950  -14.7050  -12.8740 C   0  0  0  0  0  0  0  0  0  0  0  0
   29.3110  -13.8120  -13.6010 O   0  0  0  0  0  0  0  0  0  0  0  0
   28.6280  -15.8990  -13.4130 O   0  0  0  0  0  0  0  0  0  0  0  0
  1  2  1  0
  3  4  2  0
  4  5  1  0
  1  5  2  0
  4  6  1  0
  1  7  1  0
  6  9  2  0
  7  9  1  0
  9 10  1  0
 10 11  2  0
  6 12  1  0
 12 13  2  0
 11 13  1  0
 11 14  1  0
  8 14  2  0
 14 15  1  0
 15 16  1  0
 16 17  1  0
 17 18  2  0
 17 19  1  0
 19 20  1  0
 20 21  1  0
 21 22  2  0
 21 23  1  0
M  END
$$$$
