
     RDKit          3D

 44 48  0  0  0  0  0  0  0  0999 V2000
   -8.4939   -3.7047    0.9816 C   0  0  0  0  0  0  0  0  0  0  0  0
   -7.4681   -3.6293   -1.3292 C   0  0  0  0  0  0  0  0  0  0  0  0
   -0.8921    6.1301    0.1959 C   0  0  0  0  0  0  0  0  0  0  0  0
   -2.3034    4.6294    1.4650 C   0  0  0  0  0  0  0  0  0  0  0  0
    8.7779    0.2533   -0.2768 C   0  0  0  0  0  0  0  0  0  0  0  0
    4.1623   -0.3946   -3.7121 C   0  0  0  0  0  0  0  0  0  0  0  0
    8.5194    0.6308    1.0428 C   0  0  0  0  0  0  0  0  0  0  0  0
    7.7262   -0.1041   -1.1246 C   0  0  0  0  0  0  0  0  0  0  0  0
    5.2442   -0.0604   -2.8903 C   0  0  0  0  0  0  0  0  0  0  0  0
    3.0990   -1.1426   -3.2024 C   0  0  0  0  0  0  0  0  0  0  0  0
   -5.9504   -2.5614    1.9793 C   0  0  0  0  0  0  0  0  0  0  0  0
   -4.7120   -2.2464    2.5414 C   0  0  0  0  0  0  0  0  0  0  0  0
   -2.0549    3.5596   -1.3381 C   0  0  0  0  0  0  0  0  0  0  0  0
   -1.9634    2.1041   -1.7895 C   0  0  0  0  0  0  0  0  0  0  0  0
    6.1480    0.2947    0.6729 C   0  0  0  0  0  0  0  0  0  0  0  0
    4.2131   -1.2587   -1.0538 C   0  0  0  0  0  0  0  0  0  0  0  0
   -4.8384   -3.3925   -0.0004 C   0  0  0  0  0  0  0  0  0  0  0  0
    6.9202    1.0504    2.9504 C   0  0  0  0  0  0  0  0  0  0  0  0
   -0.5110    2.3667    0.1404 C   0  0  0  0  0  0  0  0  0  0  0  0
    7.2007    0.6687    1.5223 C   0  0  0  0  0  0  0  0  0  0  0  0
    6.3997   -0.0937   -0.6565 C   0  0  0  0  0  0  0  0  0  0  0  0
    5.2776   -0.4838   -1.5487 C   0  0  0  0  0  0  0  0  0  0  0  0
   -6.0348   -3.1537    0.7043 C   0  0  0  0  0  0  0  0  0  0  0  0
   -0.8568    3.7589   -0.3886 C   0  0  2  0  0  0  0  0  0  0  0  0
    3.1188   -1.5674   -1.8685 C   0  0  0  0  0  0  0  0  0  0  0  0
   -3.5216   -2.5064    1.8462 C   0  0  0  0  0  0  0  0  0  0  0  0
   -3.5950   -3.0459    0.5411 C   0  0  0  0  0  0  0  0  0  0  0  0
    0.4864   -0.3975   -1.1189 C   0  0  0  0  0  0  0  0  0  0  0  0
   -1.8221   -0.8915   -0.5728 C   0  0  0  0  0  0  0  0  0  0  0  0
   -0.8155    0.0437   -0.8439 C   0  0  0  0  0  0  0  0  0  0  0  0
    0.7662   -1.7788   -1.1133 C   0  0  0  0  0  0  0  0  0  0  0  0
   -1.5036   -2.2629   -0.5501 C   0  0  0  0  0  0  0  0  0  0  0  0
   -2.2264   -2.2702    2.5200 C   0  0  0  0  0  0  0  0  0  0  0  0
    1.4545    0.5160   -1.3817 F   0  0  0  0  0  0  0  0  0  0  0  0
   -3.0870   -0.4643   -0.3276 F   0  0  0  0  0  0  0  0  0  0  0  0
    6.9279   -0.1414    3.7941 N   0  0  0  0  0  0  0  0  0  0  0  0
   -0.2337   -2.6551   -0.8328 N   0  0  0  0  0  0  0  0  0  0  0  0
   -7.3207   -3.4934    0.1246 N   0  0  0  0  0  0  0  0  0  0  0  0
   -1.0459    4.7559    0.7003 N   0  0  0  0  0  0  0  0  0  0  0  0
   -1.1089    1.4477   -0.8141 N   0  0  0  0  0  0  0  0  0  0  0  0
   -2.1129   -1.3467    3.3715 O   0  0  0  0  0  0  0  0  0  0  0  0
   -1.1427   -3.1028    2.2626 O   0  0  0  0  0  0  0  0  0  0  0  0
    2.0516   -2.2957   -1.3380 O   0  0  0  0  0  0  0  0  0  0  0  0
   -2.4529   -3.2508   -0.2447 O   0  0  0  0  0  0  0  0  0  0  0  0
  1 38  1  0
  2 38  1  0
  3 39  1  0
  4 39  1  0
  5  7  2  0
  5  8  1  0
  6  9  2  0
  6 10  1  0
  7 20  1  0
  8 21  2  0
  9 22  1  0
 10 25  2  0
 11 12  2  0
 11 23  1  0
 12 26  1  0
 13 14  1  0
 13 24  1  0
 14 40  1  0
 15 20  2  0
 15 21  1  0
 16 22  2  0
 16 25  1  0
 17 23  2  0
 17 27  1  0
 18 20  1  0
 18 36  1  0
 19 24  1  0
 19 40  1  0
 21 22  1  0
 23 38  1  0
 24 39  1  1
 25 43  1  0
 26 27  2  0
 26 33  1  0
 27 44  1  0
 28 30  2  0
 28 31  1  0
 28 34  1  0
 29 30  1  0
 29 32  2  0
 29 35  1  0
 30 40  1  0
 31 37  2  0
 31 43  1  0
 32 37  1  0
 32 44  1  0
 33 41  2  0
 33 42  1  0
M  END
$$$$
