
     RDKit          3D

 11 11  0  0  0  0  0  0  0  0999 V2000
   -0.2610    0.8049   -0.9603 C   0  0  0  0  0  0  0  0  0  0  0  0
   -0.4784   -0.3676    1.1468 C   0  0  0  0  0  0  0  0  0  0  0  0
    1.1102    0.5324   -0.9716 C   0  0  0  0  0  0  0  0  0  0  0  0
    0.8926   -0.6410    1.1369 C   0  0  0  0  0  0  0  0  0  0  0  0
   -2.5423    0.6320    0.0977 C   0  0  0  0  0  0  0  0  0  0  0  0
   -1.0619    0.3683    0.1051 C   0  0  0  0  0  0  0  0  0  0  0  0
    1.7018   -0.1915    0.0779 C   0  0  0  0  0  0  0  0  0  0  0  0
    3.1532   -0.4784    0.0624 C   0  0  0  0  0  0  0  0  0  0  0  0
   -3.2303   -0.4151   -0.6496 N   0  0  0  0  0  0  0  0  0  0  0  0
    3.9459   -0.0311   -0.9916 O   0  0  0  0  0  0  0  0  0  0  0  0
    3.6858   -1.1293    1.0019 O   0  0  0  0  0  0  0  0  0  0  0  0
  1  3  2  0
  1  6  1  0
  2  4  1  0
  2  6  2  0
  3  7  1  0
  4  7  2  0
  5  6  1  0
  5  9  1  0
  7  8  1  0
  8 10  1  0
  8 11  2  0
M  END
$$$$
