
     RDKit          3D

 18 20  0  0  0  0  0  0  0  0999 V2000
    1.4614    0.2408    0.9188 C   0  0  0  0  0  0  0  0  0  0  0  0
    2.4730   -1.1383   -0.7991 C   0  0  0  0  0  0  0  0  0  0  0  0
    2.3885   -0.2403    1.8483 C   0  0  0  0  0  0  0  0  0  0  0  0
    3.3988   -1.6169    0.1333 C   0  0  0  0  0  0  0  0  0  0  0  0
   -1.5686   -0.7558    0.7291 C   0  0  0  0  0  0  0  0  0  0  0  0
   -2.6626    1.3563    0.2949 C   0  0  0  0  0  0  0  0  0  0  0  0
   -2.4107   -0.9404    1.8281 C   0  0  0  0  0  0  0  0  0  0  0  0
   -3.4846    1.1321    1.4019 C   0  0  0  0  0  0  0  0  0  0  0  0
   -1.2225    1.1306   -2.4420 C   0  0  0  0  0  0  0  0  0  0  0  0
   -1.6812    0.4118   -0.0421 C   0  0  0  0  0  0  0  0  0  0  0  0
    1.4846   -0.2189   -0.4101 C   0  0  0  0  0  0  0  0  0  0  0  0
    3.3544   -1.1714    1.4572 C   0  0  0  0  0  0  0  0  0  0  0  0
   -0.8150    0.6299   -1.2210 C   0  0  0  0  0  0  0  0  0  0  0  0
    0.5234    0.2918   -1.4103 C   0  0  0  0  0  0  0  0  0  0  0  0
    4.2536   -1.6356    2.3596 F   0  0  0  0  0  0  0  0  0  0  0  0
   -3.3419   -0.0006    2.1396 N   0  0  0  0  0  0  0  0  0  0  0  0
   -0.1861    1.0735   -3.2953 N   0  0  0  0  0  0  0  0  0  0  0  0
    0.8725    0.5687   -2.6832 N   0  0  0  0  0  0  0  0  0  0  0  0
  1  3  2  0
  1 11  1  0
  2  4  1  0
  2 11  2  0
  3 12  1  0
  4 12  2  0
  5  7  2  0
  5 10  1  0
  6  8  1  0
  6 10  2  0
  7 16  1  0
  8 16  2  0
  9 13  2  0
  9 17  1  0
 10 13  1  0
 11 14  1  0
 12 15  1  0
 13 14  1  0
 14 18  2  0
 17 18  1  0
M  END
$$$$
