3V0Y_SQO_A_402_
     RDKit          3D

 16 18  0  0  0  0  0  0  0  0999 V2000
   16.2857   16.8855   24.5110 N   0  0  0  0  0  0  0  0  0  0  0  0
   15.0605   16.5308   24.0316 C   0  0  0  0  0  0  0  0  0  0  0  0
   14.8290   16.5368   22.6919 N   0  0  0  0  0  0  0  0  0  0  0  0
   15.8242   16.8908   21.7662 C   0  0  0  0  0  0  0  0  0  0  0  0
   17.0926   17.2681   22.2159 C   0  0  0  0  0  0  0  0  0  0  0  0
   17.3390   17.2498   23.6757 C   0  0  0  0  0  0  0  0  0  0  0  0
   18.1088   17.6419   21.3241 C   0  0  0  0  0  0  0  0  0  0  0  0
   17.7872   17.6252   19.9631 C   0  0  0  0  0  0  0  0  0  0  0  0
   16.5300   17.2659   19.4831 C   0  0  0  0  0  0  0  0  0  0  0  0
   15.5244   16.8990   20.3932 C   0  0  0  0  0  0  0  0  0  0  0  0
   18.5006   17.9266   18.8259 N   0  0  0  0  0  0  0  0  0  0  0  0
   17.6871   17.7492   17.7411 C   0  0  0  0  0  0  0  0  0  0  0  0
   16.4875   17.3520   18.1097 N   0  0  0  0  0  0  0  0  0  0  0  0
   18.2117   17.9935   16.5000 N   0  0  0  0  0  0  0  0  0  0  0  0
   18.4183   17.5621   24.1523 O   0  0  0  0  0  0  0  0  0  0  0  0
   17.3781   18.2785   15.3445 C   0  0  0  0  0  0  0  0  0  0  0  0
  1  2  2  0
  1  6  1  0
  2  3  1  0
  3  4  2  0
  4  5  1  0
  4 10  1  0
  5  6  1  0
  5  7  2  0
  6 15  2  0
  7  8  1  0
  8  9  1  0
  8 11  2  0
  9 13  1  0
  9 10  2  0
 11 12  1  0
 12 13  2  0
 12 14  1  0
 14 16  1  0
M  END
$$$$
