2QZR_S79_A_500_
     RDKit          3D

 27 31  0  0  0  0  0  0  0  0999 V2000
   14.0240   15.8320   25.0270 N   0  0  0  0  0  0  0  0  0  0  0  0
   14.9590   16.2410   24.0420 C   0  0  0  0  0  0  0  0  0  0  0  0
   14.5980   16.1580   22.7440 N   0  0  0  0  0  0  0  0  0  0  0  0
   15.4700   16.5360   21.7870 C   0  0  0  0  0  0  0  0  0  0  0  0
   15.1050   16.4690   20.3200 C   0  0  0  0  0  0  0  0  0  0  0  0
   16.1120   16.9010   19.3840 C   0  0  0  0  0  0  0  0  0  0  0  0
   15.9620   16.9320   18.0610 N   0  0  0  0  0  0  0  0  0  0  0  0
   17.0690   17.3700   17.6010 C   0  0  0  0  0  0  0  0  0  0  0  0
   17.3070   17.5300   16.2780 N   0  0  0  0  0  0  0  0  0  0  0  0
   16.1170   17.6540   15.4600 C   0  0  0  0  0  0  0  0  0  0  0  0
   16.4390   18.4280   14.1890 C   0  0  0  0  0  0  0  0  0  0  0  0
   16.9120   19.7430   14.2360 C   0  0  0  0  0  0  0  0  0  0  0  0
   17.1180   20.4040   15.4500 C   0  0  0  0  0  0  0  0  0  0  0  0
   17.6020   21.7150   15.4750 C   0  0  0  0  0  0  0  0  0  0  0  0
   17.8680   22.3860   14.2800 C   0  0  0  0  0  0  0  0  0  0  0  0
   17.6610   21.7290   13.0640 C   0  0  0  0  0  0  0  0  0  0  0  0
   17.1810   20.4160   13.0380 C   0  0  0  0  0  0  0  0  0  0  0  0
   16.9820   19.7760   11.8110 C   0  0  0  0  0  0  0  0  0  0  0  0
   16.5040   18.4610   11.7690 C   0  0  0  0  0  0  0  0  0  0  0  0
   16.2280   17.7870   12.9610 C   0  0  0  0  0  0  0  0  0  0  0  0
   18.0200   17.6830   18.4980 N   0  0  0  0  0  0  0  0  0  0  0  0
   17.1990   17.3090   19.7000 C   0  0  0  0  0  0  0  0  0  0  0  0
   17.6850   17.4150   21.0560 C   0  0  0  0  0  0  0  0  0  0  0  0
   16.7340   16.9980   22.1510 C   0  0  0  0  0  0  0  0  0  0  0  0
   17.0740   17.0630   23.5040 C   0  0  0  0  0  0  0  0  0  0  0  0
   18.3380   17.5120   23.8790 O   0  0  0  0  0  0  0  0  0  0  0  0
   16.1740   16.6840   24.4310 N   0  0  0  0  0  0  0  0  0  0  0  0
  1  2  1  0
  2  3  2  0
  3  4  1  0
  4  5  2  0
  5  6  1  0
  6  7  1  0
  7  8  1  0
  8  9  1  0
  9 10  1  0
 10 11  1  0
 11 12  1  0
 12 13  2  0
 13 14  1  0
 14 15  2  0
 15 16  1  0
 16 17  2  0
 12 17  1  0
 17 18  1  0
 18 19  2  0
 19 20  1  0
 11 20  2  0
  8 21  2  0
 21 22  1  0
  6 22  2  0
 22 23  1  0
 23 24  2  0
  4 24  1  0
 24 25  1  0
 25 26  2  0
 25 27  1  0
  2 27  1  0
M  END
$$$$
