
     RDKit          3D

 34 38  0  0  0  0  0  0  0  0999 V2000
   -2.6747    3.0377    1.2816 C   0  0  0  0  0  0  0  0  0  0  0  0
   -5.0196   -2.2781    1.1475 C   0  0  0  0  0  0  0  0  0  0  0  0
   -3.3155    4.2011   -2.2859 C   0  0  0  0  0  0  0  0  0  0  0  0
   -3.0172    3.0505   -3.0181 C   0  0  0  0  0  0  0  0  0  0  0  0
   -1.6475   -3.7055    2.1355 C   0  0  0  0  0  0  0  0  0  0  0  0
    5.7433   -0.4015    1.4637 C   0  0  0  0  0  0  0  0  0  0  0  0
   -3.1971    4.1972   -0.8934 C   0  0  0  0  0  0  0  0  0  0  0  0
   -3.0178   -3.5290    1.9591 C   0  0  0  0  0  0  0  0  0  0  0  0
   -0.7534   -2.7547    1.6558 C   0  0  0  0  0  0  0  0  0  0  0  0
    4.7742   -0.2231    0.7693 C   0  0  0  0  0  0  0  0  0  0  0  0
   -2.5995    1.8920   -2.3605 C   0  0  0  0  0  0  0  0  0  0  0  0
    6.9228   -0.6205    2.3059 C   0  0  0  0  0  0  0  0  0  0  0  0
    0.3573    1.3861   -0.5695 C   0  0  0  0  0  0  0  0  0  0  0  0
    2.0953   -1.2507   -3.6293 C   0  0  0  0  0  0  0  0  0  0  0  0
   -2.7691    3.0407   -0.2195 C   0  0  0  0  0  0  0  0  0  0  0  0
   -3.5226   -2.3937    1.2979 C   0  0  0  0  0  0  0  0  0  0  0  0
   -1.2228   -1.6173    0.9953 C   0  0  0  0  0  0  0  0  0  0  0  0
    3.6157   -0.0073   -0.0528 C   0  0  0  0  0  0  0  0  0  0  0  0
   -2.4697    1.8779   -0.9637 C   0  0  0  0  0  0  0  0  0  0  0  0
   -0.7099    0.4110   -0.1209 C   0  0  0  0  0  0  0  0  0  0  0  0
   -2.6087   -1.4108    0.8044 C   0  0  0  0  0  0  0  0  0  0  0  0
    3.3453   -0.5543   -1.3001 C   0  0  0  0  0  0  0  0  0  0  0  0
    3.9887   -1.4309   -2.1795 C   0  0  0  0  0  0  0  0  0  0  0  0
    2.1170   -0.0626   -1.6215 C   0  0  0  0  0  0  0  0  0  0  0  0
   -2.9940   -0.2222    0.1318 C   0  0  0  0  0  0  0  0  0  0  0  0
    5.2789   -1.9853   -1.9148 N   0  0  0  0  0  0  0  0  0  0  0  0
    3.3346   -1.7562   -3.3348 N   0  0  0  0  0  0  0  0  0  0  0  0
    1.4727   -0.3959   -2.7657 N   0  0  0  0  0  0  0  0  0  0  0  0
   -0.3287   -0.7114    0.5376 N   0  0  0  0  0  0  0  0  0  0  0  0
    2.5708    0.7682    0.3283 N   0  0  0  0  0  0  0  0  0  0  0  0
    1.6646    0.7376   -0.6423 N   0  0  0  0  0  0  0  0  0  0  0  0
   -2.0450    0.6675   -0.3056 N   0  0  0  0  0  0  0  0  0  0  0  0
    6.7718    0.0502    3.5263 O   0  0  0  0  0  0  0  0  0  0  0  0
   -4.2134    0.0344   -0.0687 O   0  0  0  0  0  0  0  0  0  0  0  0
  1 15  1  0
  2 16  1  0
  3  4  2  0
  3  7  1  0
  4 11  1  0
  5  8  2  0
  5  9  1  0
  6 10  3  0
  6 12  1  0
  7 15  2  0
  8 16  1  0
  9 17  2  0
 10 18  1  0
 11 19  2  0
 12 33  1  0
 13 20  1  0
 13 31  1  0
 14 27  2  0
 14 28  1  0
 15 19  1  0
 16 21  2  0
 17 21  1  0
 17 29  1  0
 18 22  1  0
 18 30  2  0
 19 32  1  0
 20 29  2  0
 20 32  1  0
 21 25  1  0
 22 23  2  0
 22 24  1  0
 23 26  1  0
 23 27  1  0
 24 28  2  0
 24 31  1  0
 25 32  1  0
 25 34  2  0
 30 31  1  0
M  END
$$$$
