2WXN_DLN_A_1500_
     RDKit          3D

 22 24  0  0  0  0  0  0  0  0999 V2000
   -6.9315   -1.8865   23.6007 C   0  0  0  0  0  0  0  0  0  0  0  0
   -5.8168   -0.8263   23.5911 C   0  0  0  0  0  0  0  0  0  0  0  0
   -4.5538   -1.2743   24.3260 C   0  0  0  0  0  0  0  0  0  0  0  0
   -6.3506    0.4722   24.0749 N   0  0  0  0  0  0  0  0  0  0  0  0
   -7.4909    0.8180   23.7304 N   0  0  0  0  0  0  0  0  0  0  0  0
   -5.7415    1.4603   24.7812 C   0  0  0  0  0  0  0  0  0  0  0  0
   -4.5169    1.6549   25.3329 N   0  0  0  0  0  0  0  0  0  0  0  0
   -4.2455    2.7945   26.0254 C   0  0  0  0  0  0  0  0  0  0  0  0
   -5.1267    3.8207   26.1013 N   0  0  0  0  0  0  0  0  0  0  0  0
   -6.3532    3.6593   25.5356 C   0  0  0  0  0  0  0  0  0  0  0  0
   -7.2766    4.5645   25.6192 N   0  0  0  0  0  0  0  0  0  0  0  0
   -6.6686    2.4925   24.8831 C   0  0  0  0  0  0  0  0  0  0  0  0
  -10.0257    3.2517   23.8759 C   0  0  0  0  0  0  0  0  0  0  0  0
  -11.3702    3.6820   23.8191 C   0  0  0  0  0  0  0  0  0  0  0  0
  -12.1012    3.3611   22.7149 C   0  0  0  0  0  0  0  0  0  0  0  0
  -11.9536    4.3429   24.9033 C   0  0  0  0  0  0  0  0  0  0  0  0
  -13.2900    4.7581   24.8805 C   0  0  0  0  0  0  0  0  0  0  0  0
  -14.0091    4.4643   23.7553 C   0  0  0  0  0  0  0  0  0  0  0  0
  -13.4266    3.7623   22.6861 C   0  0  0  0  0  0  0  0  0  0  0  0
  -14.1877    3.4556   21.5720 O   0  0  0  0  0  0  0  0  0  0  0  0
   -7.7609    2.0451   24.2034 C   0  0  0  0  0  0  0  0  0  0  0  0
   -8.9511    2.7605   24.0271 C   0  0  0  0  0  0  0  0  0  0  0  0
  1  2  1  0
  2  3  1  0
  2  4  1  0
  4  5  1  0
  4  6  1  0
  6  7  2  0
  7  8  1  0
  8  9  2  0
  9 10  1  0
 10 11  1  0
  6 12  1  0
 10 12  2  0
 13 14  1  0
 14 15  2  0
 14 16  1  0
 16 17  2  0
 17 18  1  0
 15 19  1  0
 18 19  2  0
 19 20  1  0
  5 21  2  0
 12 21  1  0
 13 22  3  0
 21 22  1  0
M  END
$$$$
