3I6Z_G6X_A_1_
     RDKit          3D

 38 43  0  0  0  0  0  0  0  0999 V2000
    2.5230   67.7400   63.3090 C   0  0  0  0  0  0  0  0  0  0  0  0
    2.6200   68.1660   62.0160 C   0  0  0  0  0  0  0  0  0  0  0  0
    3.9640   68.2530   61.2790 C   0  0  0  0  0  0  0  0  0  0  0  0
    5.1150   68.4910   62.2850 C   0  0  0  0  0  0  0  0  0  0  0  0
    5.2730   66.0890   62.8530 O   0  0  0  0  0  0  0  0  0  0  0  0
    4.6560   63.8350   63.7980 C   0  0  0  0  0  0  0  0  0  0  0  0
    3.8050   63.1620   64.7150 C   0  0  0  0  0  0  0  0  0  0  0  0
    2.8860   63.8900   65.4950 C   0  0  0  0  0  0  0  0  0  0  0  0
    1.8310   66.0100   66.3560 C   0  0  0  0  0  0  0  0  0  0  0  0
    2.4810   67.1560   67.0720 N   0  0  0  0  0  0  0  0  0  0  0  0
    2.5860   68.4070   66.2960 C   0  0  0  0  0  0  0  0  0  0  0  0
    3.8440   68.3840   65.3740 C   0  0  0  0  0  0  0  0  0  0  0  0
    4.5620   65.2380   63.6580 C   0  0  0  0  0  0  0  0  0  0  0  0
    3.6490   65.9490   64.4410 C   0  0  0  0  0  0  0  0  0  0  0  0
    2.7970   65.2990   65.3830 C   0  0  0  0  0  0  0  0  0  0  0  0
    5.3650   61.7930   62.8200 C   0  0  0  0  0  0  0  0  0  0  0  0
    5.6510   63.1650   63.0930 O   0  0  0  0  0  0  0  0  0  0  0  0
    4.1500   67.0410   60.5370 O   0  0  0  0  0  0  0  0  0  0  0  0
    3.7330   66.8650   67.8520 C   0  0  0  0  0  0  0  0  0  0  0  0
    3.5370   65.9070   69.0410 C   0  0  0  0  0  0  0  0  0  0  0  0
    3.8700   64.4840   68.6240 C   0  0  0  0  0  0  0  0  0  0  0  0
    4.3160   63.6070   69.8040 C   0  0  0  0  0  0  0  0  0  0  0  0
    3.1820   63.1870   70.7470 C   0  0  0  0  0  0  0  0  0  0  0  0
    2.1540   62.3040   70.0470 C   0  0  0  0  0  0  0  0  0  0  0  0
    1.2460   61.7050   71.0480 N   0  0  0  0  0  0  0  0  0  0  0  0
    1.3910   60.4150   71.4670 C   0  0  0  0  0  0  0  0  0  0  0  0
    0.2910   60.0140   72.3070 C   0  0  0  0  0  0  0  0  0  0  0  0
    0.0440   58.7670   72.9240 C   0  0  0  0  0  0  0  0  0  0  0  0
   -1.1600   58.5260   73.6190 C   0  0  0  0  0  0  0  0  0  0  0  0
   -2.1370   59.5350   73.7070 C   0  0  0  0  0  0  0  0  0  0  0  0
   -1.9000   60.7820   73.1010 C   0  0  0  0  0  0  0  0  0  0  0  0
   -0.6960   61.0160   72.4140 C   0  0  0  0  0  0  0  0  0  0  0  0
   -0.0280   62.4600   71.6350 S   0  0  0  0  0  0  0  0  0  0  0  0
    2.3270   59.6800   71.1400 O   0  0  0  0  0  0  0  0  0  0  0  0
   -0.8090   63.1790   70.5690 O   0  0  0  0  0  0  0  0  0  0  0  0
    0.4370   63.4670   72.6510 O   0  0  0  0  0  0  0  0  0  0  0  0
    5.1070   67.4230   63.4460 C   0  0  0  0  0  0  0  0  0  0  0  0
    3.7270   67.3420   64.2330 C   0  0  0  0  0  0  0  0  0  0  0  0
  1  2  2  0
  2  3  1  0
  3  4  1  0
  6  7  1  0
  7  8  2  0
  9 10  1  0
 10 11  1  0
 11 12  1  0
  5 13  1  0
  6 13  2  0
 13 14  1  0
  8 15  1  0
  9 15  1  0
 14 15  2  0
  6 17  1  0
 16 17  1  0
  3 18  1  0
 10 19  1  0
 19 20  1  0
 20 21  1  0
 21 22  1  0
 22 23  1  0
 23 24  1  0
 24 25  1  0
 25 26  1  0
 26 27  1  0
 27 28  1  0
 28 29  2  0
 29 30  1  0
 30 31  2  0
 27 32  2  0
 31 32  1  0
 25 33  1  0
 32 33  1  0
 26 34  2  0
 33 35  2  0
 33 36  2  0
  4 37  1  0
  5 37  1  0
  1 38  1  0
 12 38  1  0
 14 38  1  0
 37 38  1  0
M  END
$$$$
