
     RDKit          3D

 33 36  0  0  0  0  0  0  0  0999 V2000
    0.9321   -5.4436    1.8544 C   0  0  0  0  0  0  0  0  0  0  0  0
    2.1804   -5.6012   -0.3337 C   0  0  0  0  0  0  0  0  0  0  0  0
   -7.0287    1.1149    1.5818 C   0  0  0  0  0  0  0  0  0  0  0  0
   -7.4682    1.9853   -0.6201 C   0  0  0  0  0  0  0  0  0  0  0  0
    5.2685    3.7594    1.5013 C   0  0  0  0  0  0  0  0  0  0  0  0
    5.4364    2.6025   -0.8031 C   0  0  0  0  0  0  0  0  0  0  0  0
    4.6951    2.3931    1.8872 C   0  0  0  0  0  0  0  0  0  0  0  0
    3.9376    2.3662   -0.5804 C   0  0  0  0  0  0  0  0  0  0  0  0
   -3.3169    0.4698   -2.1142 C   0  0  0  0  0  0  0  0  0  0  0  0
   -2.8426   -0.3883    0.1009 C   0  0  0  0  0  0  0  0  0  0  0  0
   -4.6807    0.2433   -1.9096 C   0  0  0  0  0  0  0  0  0  0  0  0
   -4.2064   -0.6161    0.3036 C   0  0  0  0  0  0  0  0  0  0  0  0
    1.1908    0.4804   -0.1976 C   0  0  0  0  0  0  0  0  0  0  0  0
   -0.3889   -3.6938   -0.4608 C   0  0  0  0  0  0  0  0  0  0  0  0
    1.6937   -4.6660    0.7768 C   0  0  0  0  0  0  0  0  0  0  0  0
    6.0024    3.6980    0.1407 C   0  0  1  0  0  0  0  0  0  0  0  0
    3.6099    1.9417    0.8779 C   0  0  1  0  0  0  0  0  0  0  0  0
   -2.3843    0.1416   -1.1191 C   0  0  0  0  0  0  0  0  0  0  0  0
   -5.1320   -0.3028   -0.7008 C   0  0  0  0  0  0  0  0  0  0  0  0
    0.8305   -3.5732    0.2040 C   0  0  0  0  0  0  0  0  0  0  0  0
    2.2451   -0.2018    0.4635 C   0  0  0  0  0  0  0  0  0  0  0  0
    0.0782   -0.2485   -0.6473 C   0  0  0  0  0  0  0  0  0  0  0  0
    1.0811   -2.2220    0.1725 C   0  0  0  0  0  0  0  0  0  0  0  0
    5.9723    5.0175   -0.4951 N   0  0  0  0  0  0  0  0  0  0  0  0
   -0.8231   -2.4723   -0.8555 N   0  0  0  0  0  0  0  0  0  0  0  0
    3.4066    0.4879    0.9615 N   0  0  0  0  0  0  0  0  0  0  0  0
   -0.9904    0.4144   -1.3406 N   0  0  0  0  0  0  0  0  0  0  0  0
    2.1659   -1.5553    0.6347 N   0  0  0  0  0  0  0  0  0  0  0  0
   -7.6249    0.8288    0.2706 N   0  0  0  0  0  0  0  0  0  0  0  0
    0.0798   -1.5936   -0.4506 N   0  0  0  0  0  0  0  0  0  0  0  0
   -7.0386   -1.7553    0.4732 O   0  0  0  0  0  0  0  0  0  0  0  0
   -7.5135   -0.8917   -1.7508 O   0  0  0  0  0  0  0  0  0  0  0  0
   -6.8564   -0.5718   -0.4365 S   0  0  0  0  0  6  0  0  0  0  0  0
  1 15  1  0
  2 15  1  0
  3 29  1  0
  4 29  1  0
  5  7  1  0
  5 16  1  0
  6  8  1  0
  6 16  1  0
  7 17  1  0
  8 17  1  0
  9 11  2  0
  9 18  1  0
 10 12  1  0
 10 18  2  0
 11 19  1  0
 12 19  2  0
 13 21  1  0
 13 22  2  0
 14 20  1  0
 14 25  2  0
 15 20  1  0
 16 24  1  6
 17 26  1  6
 18 27  1  0
 19 33  1  0
 20 23  2  0
 21 26  1  0
 21 28  2  0
 22 27  1  0
 22 30  1  0
 23 28  1  0
 23 30  1  0
 25 30  1  0
 29 33  1  0
 31 33  2  0
 32 33  2  0
M  END
$$$$
