
     RDKit          3D

 23 25  0  0  0  0  0  0  0  0999 V2000
   -2.1314   -1.7715    4.0622 C   0  0  0  0  0  0  0  0  0  0  0  0
   -3.3760   -2.7746    2.1014 C   0  0  0  0  0  0  0  0  0  0  0  0
    4.2583    1.8021   -1.0652 C   0  0  0  0  0  0  0  0  0  0  0  0
    3.3956   -0.6234   -1.2233 C   0  0  0  0  0  0  0  0  0  0  0  0
    3.1655    1.8805    0.0047 C   0  0  0  0  0  0  0  0  0  0  0  0
    2.0571    0.0800   -1.4761 C   0  0  0  0  0  0  0  0  0  0  0  0
   -1.2059    0.2716    1.5813 C   0  0  0  0  0  0  0  0  0  0  0  0
   -2.7906    1.1824   -3.2907 C   0  0  0  0  0  0  0  0  0  0  0  0
   -4.4418    0.4739   -1.4965 C   0  0  0  0  0  0  0  0  0  0  0  0
   -3.3539   -1.6550    3.1480 C   0  0  0  0  0  0  0  0  0  0  0  0
   -3.1724    0.8017   -1.9584 C   0  0  0  0  0  0  0  0  0  0  0  0
    4.5991    0.3336   -1.4264 C   0  0  1  0  0  0  0  0  0  0  0  0
    1.8352    1.2773   -0.5130 C   0  0  1  0  0  0  0  0  0  0  0  0
   -0.4336    0.6711    0.4662 C   0  0  0  0  0  0  0  0  0  0  0  0
   -2.5868    0.0642    1.4172 C   0  0  0  0  0  0  0  0  0  0  0  0
   -2.3718    0.6702   -0.8538 C   0  0  0  0  0  0  0  0  0  0  0  0
   -2.4826    1.4889   -4.3632 N   0  0  0  0  0  0  0  0  0  0  0  0
    5.0751    0.2627   -2.8099 N   0  0  0  0  0  0  0  0  0  0  0  0
   -4.3822    0.1635   -0.1772 N   0  0  0  0  0  0  0  0  0  0  0  0
   -3.4272   -0.3340    2.5102 N   0  0  0  0  0  0  0  0  0  0  0  0
    0.9800    0.8798    0.6129 N   0  0  0  0  0  0  0  0  0  0  0  0
   -1.0358    0.8638   -0.7465 N   0  0  0  0  0  0  0  0  0  0  0  0
   -3.1165    0.2926    0.1893 N   0  0  0  0  0  0  0  0  0  0  0  0
  1 10  1  0
  2 10  1  0
  3  5  1  0
  3 12  1  0
  4  6  1  0
  4 12  1  0
  5 13  1  0
  6 13  1  0
  7 14  1  0
  7 15  2  0
  8 11  1  0
  8 17  3  0
  9 11  1  0
  9 19  2  0
 10 20  1  0
 11 16  2  0
 12 18  1  6
 13 21  1  1
 14 21  1  0
 14 22  2  0
 15 20  1  0
 15 23  1  0
 16 22  1  0
 16 23  1  0
 19 23  1  0
M  END
$$$$
