3QQS_17C_A_404_
     RDKit          3D

 19 20  0  0  0  0  0  0  0  0999 V2000
   30.7020   -4.7710   26.9290 O   0  0  0  0  0  0  0  0  0  0  0  0
   26.9160   -7.3360   28.9720 O   0  0  0  0  0  0  0  0  0  0  0  0
   31.5540   -5.2870   24.9710 O   0  0  0  0  0  0  0  0  0  0  0  0
   28.3070   -5.8560   28.1030 O   0  0  0  0  0  0  0  0  0  0  0  0
   34.0030   -8.3060   28.0840 C   0  0  0  0  0  0  0  0  0  0  0  0
   30.5960   -7.5280   32.2850 C   0  0  0  0  0  0  0  0  0  0  0  0
   34.3210   -7.8160   26.8240 C   0  0  0  0  0  0  0  0  0  0  0  0
   29.2120   -7.6090   32.4320 C   0  0  0  0  0  0  0  0  0  0  0  0
   32.8480   -7.8860   28.7450 C   0  0  0  0  0  0  0  0  0  0  0  0
   31.1470   -7.1650   31.0600 C   0  0  0  0  0  0  0  0  0  0  0  0
   33.4800   -6.8850   26.2210 C   0  0  0  0  0  0  0  0  0  0  0  0
   28.3990   -7.3340   31.3410 C   0  0  0  0  0  0  0  0  0  0  0  0
   30.8630   -6.5200   28.7580 N   0  0  0  0  0  0  0  0  0  0  0  0
   31.4480   -5.4470   26.2010 C   0  0  0  0  0  0  0  0  0  0  0  0
   27.9900   -6.6880   28.9760 C   0  0  0  0  0  0  0  0  0  0  0  0
   31.9930   -6.9590   28.1520 C   0  0  0  0  0  0  0  0  0  0  0  0
   30.3420   -6.8890   29.9530 C   0  0  0  0  0  0  0  0  0  0  0  0
   32.3270   -6.4740   26.8790 C   0  0  0  0  0  0  0  0  0  0  0  0
   28.9540   -6.9630   30.1210 C   0  0  0  0  0  0  0  0  0  0  0  0
  5  7  2  0
  6  8  2  0
  5  9  1  0
  6 10  1  0
  7 11  1  0
  8 12  1  0
  1 14  1  0
  3 14  2  0
  2 15  1  0
  4 15  2  0
  9 16  2  0
 13 16  1  0
 10 17  2  0
 13 17  1  0
 11 18  2  0
 14 18  1  0
 16 18  1  0
 12 19  2  0
 15 19  1  0
 17 19  1  0
M  END
$$$$
