
     RDKit          3D

 19 20  0  0  0  0  0  0  0  0999 V2000
   -3.7256   -1.0193    1.4089 C   0  0  0  0  0  0  0  0  0  0  0  0
    3.3570   -1.3270   -0.8865 C   0  0  0  0  0  0  0  0  0  0  0  0
   -3.0243   -0.4375    2.4636 C   0  0  0  0  0  0  0  0  0  0  0  0
    2.2806   -2.0205   -0.3390 C   0  0  0  0  0  0  0  0  0  0  0  0
   -3.2115   -0.9660    0.1119 C   0  0  0  0  0  0  0  0  0  0  0  0
    3.3438    0.0677   -0.9262 C   0  0  0  0  0  0  0  0  0  0  0  0
   -1.7954    0.1801    2.2289 C   0  0  0  0  0  0  0  0  0  0  0  0
    1.1908   -1.3224    0.1808 C   0  0  0  0  0  0  0  0  0  0  0  0
   -1.9826   -0.3306   -0.1484 C   0  0  0  0  0  0  0  0  0  0  0  0
    2.2470    0.7926   -0.4222 C   0  0  0  0  0  0  0  0  0  0  0  0
   -1.2498    0.2190    0.9365 C   0  0  0  0  0  0  0  0  0  0  0  0
    1.1566    0.0858    0.1503 C   0  0  0  0  0  0  0  0  0  0  0  0
   -1.5258   -0.2096   -1.5523 C   0  0  0  0  0  0  0  0  0  0  0  0
    2.2526    2.2709   -0.5484 C   0  0  0  0  0  0  0  0  0  0  0  0
    0.0590    0.7896    0.7650 N   0  0  0  0  0  0  0  0  0  0  0  0
   -1.8812   -1.0634   -2.4092 O   0  0  0  0  0  0  0  0  0  0  0  0
   -0.7375    0.8661   -1.9497 O   0  0  0  0  0  0  0  0  0  0  0  0
    3.3458    2.8930   -0.6360 O   0  0  0  0  0  0  0  0  0  0  0  0
    1.0596    2.9853   -0.6137 O   0  0  0  0  0  0  0  0  0  0  0  0
  1  3  2  0
  1  5  1  0
  2  4  2  0
  2  6  1  0
  3  7  1  0
  4  8  1  0
  5  9  2  0
  6 10  2  0
  7 11  2  0
  8 12  2  0
  9 11  1  0
  9 13  1  0
 10 12  1  0
 10 14  1  0
 11 15  1  0
 12 15  1  0
 13 16  2  0
 13 17  1  0
 14 18  2  0
 14 19  1  0
M  END
$$$$
