
     RDKit          3D

 17 18  0  0  0  0  0  0  0  0999 V2000
   -4.3325    0.4413   -0.4064 C   0  0  0  0  0  0  0  0  0  0  0  0
   -3.5487    1.3941    0.2469 C   0  0  0  0  0  0  0  0  0  0  0  0
   -3.7330   -0.6854   -0.9717 C   0  0  0  0  0  0  0  0  0  0  0  0
   -2.1632    1.2246    0.3351 C   0  0  0  0  0  0  0  0  0  0  0  0
   -2.3486   -0.8609   -0.8866 C   0  0  0  0  0  0  0  0  0  0  0  0
   -1.5447    0.0943   -0.2350 C   0  0  0  0  0  0  0  0  0  0  0  0
    1.8420   -1.0411   -0.3246 C   0  0  0  0  0  0  0  0  0  0  0  0
    2.0151    0.2393    0.1886 C   0  0  0  0  0  0  0  0  0  0  0  0
   -0.0761   -0.1091   -0.1535 C   0  0  0  0  0  0  0  0  0  0  0  0
    2.8528   -2.0871   -0.5585 C   0  0  0  0  0  0  0  0  0  0  0  0
    3.2655    0.9583    0.4958 C   0  0  0  0  0  0  0  0  0  0  0  0
    0.5285   -1.2522   -0.5444 N   0  0  0  0  0  0  0  0  0  0  0  0
    0.8030    0.8103    0.2997 N   0  0  0  0  0  0  0  0  0  0  0  0
    2.5668   -3.0708   -1.2921 O   0  0  0  0  0  0  0  0  0  0  0  0
    4.0962   -2.0366    0.0617 O   0  0  0  0  0  0  0  0  0  0  0  0
    4.3685    0.5712    0.0288 O   0  0  0  0  0  0  0  0  0  0  0  0
    3.2177    2.1125    1.2713 O   0  0  0  0  0  0  0  0  0  0  0  0
  1  2  2  0
  1  3  1  0
  2  4  1  0
  3  5  2  0
  4  6  2  0
  5  6  1  0
  6  9  1  0
  7  8  2  0
  7 10  1  0
  7 12  1  0
  8 11  1  0
  8 13  1  0
  9 12  2  0
  9 13  1  0
 10 14  2  0
 10 15  1  0
 11 16  2  0
 11 17  1  0
M  END
$$$$
