1GI4_122_A_246_
     RDKit          3D

 31 33  0  0  0  0  0  0  0  0999 V2000
   44.0817   -2.7952   26.2563 C   0  0  0  0  0  0  0  0  0  0  0  0
   44.6049   -1.4799   26.4781 C   0  0  0  0  0  0  0  0  0  0  0  0
   44.4649   -0.7591   27.6761 C   0  0  0  0  0  0  0  0  0  0  0  0
   43.7760   -1.4201   28.6528 C   0  0  0  0  0  0  0  0  0  0  0  0
   43.2877   -2.6633   28.4767 C   0  0  0  0  0  0  0  0  0  0  0  0
   43.3962   -3.3873   27.3269 C   0  0  0  0  0  0  0  0  0  0  0  0
   44.2681   -3.4851   25.0483 C   0  0  0  0  0  0  0  0  0  0  0  0
   44.1041   -4.7909   25.0037 N   0  0  0  0  0  0  0  0  0  0  0  0
   44.6051   -2.8213   23.9675 N   0  0  0  0  0  0  0  0  0  0  0  0
   43.5437   -0.9472   29.8636 N   0  0  0  0  0  0  0  0  0  0  0  0
   42.7103   -2.9788   29.5837 N   0  0  0  0  0  0  0  0  0  0  0  0
   42.8667   -1.9665   30.3808 C   0  0  0  0  0  0  0  0  0  0  0  0
   42.3271   -2.0052   31.7319 C   0  0  0  0  0  0  0  0  0  0  0  0
   41.4022   -3.0440   32.0829 C   0  0  0  0  0  0  0  0  0  0  0  0
   40.8377   -3.1320   33.3365 C   0  0  0  0  0  0  0  0  0  0  0  0
   41.1629   -2.1976   34.3074 C   0  0  0  0  0  0  0  0  0  0  0  0
   42.0527   -1.1567   34.0577 C   0  0  0  0  0  0  0  0  0  0  0  0
   42.6309   -1.0604   32.7980 C   0  0  0  0  0  0  0  0  0  0  0  0
   43.5068    0.0019   32.7398 O   0  0  0  0  0  0  0  0  0  0  0  0
   45.1208   -1.0073   25.6765 H   0  0  0  0  0  0  0  0  0  0  0  0
   44.8685    0.2379   27.8200 H   0  0  0  0  0  0  0  0  0  0  0  0
   42.9533   -4.3657   27.3126 H   0  0  0  0  0  0  0  0  0  0  0  0
   43.8662   -5.2899   25.8547 H   0  0  0  0  0  0  0  0  0  0  0  0
   44.2052   -5.3541   24.1880 H   0  0  0  0  0  0  0  0  0  0  0  0
   44.6959   -1.8259   24.0149 H   0  0  0  0  0  0  0  0  0  0  0  0
   44.7776   -3.2262   23.0771 H   0  0  0  0  0  0  0  0  0  0  0  0
   42.2277   -3.7914   29.8618 H   0  0  0  0  0  0  0  0  0  0  0  0
   41.1309   -3.7741   31.3391 H   0  0  0  0  0  0  0  0  0  0  0  0
   40.1552   -3.9276   33.5575 H   0  0  0  0  0  0  0  0  0  0  0  0
   40.7248   -2.2638   35.2762 H   0  0  0  0  0  0  0  0  0  0  0  0
   42.3225   -0.3997   34.8048 H   0  0  0  0  0  0  0  0  0  0  0  0
  1  2  2  0
  2  3  1  0
  3  4  2  0
  4  5  1  0
  1  6  1  0
  5  6  2  0
  1  7  1  0
  7  8  1  0
  7  9  2  0
  4 10  1  0
  5 11  1  0
 10 12  2  0
 11 12  1  0
 12 13  1  0
 13 14  2  0
 14 15  1  0
 15 16  2  0
 16 17  1  0
 13 18  1  0
 17 18  2  0
 18 19  1  0
  2 20  1  0
  3 21  1  0
  6 22  1  0
  8 23  1  0
  8 24  1  0
  9 25  1  0
  9 26  1  0
 11 27  1  0
 14 28  1  0
 15 29  1  0
 16 30  1  0
 17 31  1  0
M  CHG  1   9   1
M  END
$$$$
