
     RDKit          3D

 26 29  0  0  0  0  0  0  0  0999 V2000
   -6.5014   -1.2264   -1.2852 C   0  0  0  0  0  0  0  0  0  0  0  0
   -5.6058   -1.8859   -0.4391 C   0  0  0  0  0  0  0  0  0  0  0  0
   -6.2707    0.1036   -1.6476 C   0  0  0  0  0  0  0  0  0  0  0  0
   -2.1662    2.6991    1.4809 C   0  0  0  0  0  0  0  0  0  0  0  0
   -4.4762   -1.2178    0.0436 C   0  0  0  0  0  0  0  0  0  0  0  0
   -5.1422    0.7755   -1.1674 C   0  0  0  0  0  0  0  0  0  0  0  0
   -3.2487    2.0131    0.9344 C   0  0  0  0  0  0  0  0  0  0  0  0
   -0.8716    2.2104    1.3158 C   0  0  0  0  0  0  0  0  0  0  0  0
    4.2157    0.8583    0.2448 C   0  0  0  0  0  0  0  0  0  0  0  0
    3.3060   -1.8274    0.2105 C   0  0  0  0  0  0  0  0  0  0  0  0
   -4.2302    0.1157   -0.3263 C   0  0  0  0  0  0  0  0  0  0  0  0
   -3.0485    0.8330    0.2016 C   0  0  0  0  0  0  0  0  0  0  0  0
   -0.6399    1.0293    0.5926 C   0  0  0  0  0  0  0  0  0  0  0  0
    5.1500   -0.2001    0.1480 C   0  0  0  0  0  0  0  0  0  0  0  0
    4.6859   -1.5508    0.1395 C   0  0  0  0  0  0  0  0  0  0  0  0
    2.8640    0.5372    0.3099 C   0  0  0  0  0  0  0  0  0  0  0  0
    2.4300   -0.7504    0.2880 C   0  0  0  0  0  0  0  0  0  0  0  0
   -1.7305    0.3537   -0.0010 C   0  0  0  0  0  0  0  0  0  0  0  0
    6.5926    0.1216    0.0549 C   0  0  0  0  0  0  0  0  0  0  0  0
    0.7515    0.5423    0.4452 C   0  0  0  0  0  0  0  0  0  0  0  0
    5.7991   -2.9146    0.1174 Cl  0  0  0  0  0  0  0  0  0  0  0  0
    7.1387    0.9463    0.8926 N   0  0  0  0  0  0  0  0  0  0  0  0
    7.3893   -0.4407   -0.9895 N   0  0  0  0  0  0  0  0  0  0  0  0
    1.8229    1.3814    0.4148 N   0  0  0  0  0  0  0  0  0  0  0  0
    1.0948   -0.7706    0.3778 N   0  0  0  0  0  0  0  0  0  0  0  0
   -1.4842   -0.7490   -0.8245 O   0  0  0  0  0  0  0  0  0  0  0  0
  1  2  2  0
  1  3  1  0
  2  5  1  0
  3  6  2  0
  4  7  2  0
  4  8  1  0
  5 11  2  0
  6 11  1  0
  7 12  1  0
  8 13  2  0
  9 14  2  0
  9 16  1  0
 10 15  2  0
 10 17  1  0
 11 12  1  0
 12 18  2  0
 13 18  1  0
 13 20  1  0
 14 15  1  0
 14 19  1  0
 15 21  1  0
 16 17  2  0
 16 24  1  0
 17 25  1  0
 18 26  1  0
 19 22  2  3
 19 23  1  0
 20 24  2  0
 20 25  1  0
M  END
$$$$
