
     RDKit          3D

 14 15  0  0  0  0  0  0  0  0999 V2000
    3.6468   -0.1792    0.5131 C   0  0  0  0  0  0  0  0  0  0  0  0
    3.3369   -1.3115   -0.2759 C   0  0  0  0  0  0  0  0  0  0  0  0
    2.6898    0.8345    0.7131 C   0  0  0  0  0  0  0  0  0  0  0  0
    2.0677   -1.4389   -0.8716 C   0  0  0  0  0  0  0  0  0  0  0  0
   -1.9360    1.3784   -0.7751 C   0  0  0  0  0  0  0  0  0  0  0  0
   -2.8400    0.9825    0.3970 C   0  0  0  0  0  0  0  0  0  0  0  0
    1.4453    0.6774    0.1073 C   0  0  0  0  0  0  0  0  0  0  0  0
    1.1495   -0.4144   -0.6534 C   0  0  0  0  0  0  0  0  0  0  0  0
   -0.5397    0.8653   -0.5894 C   0  0  0  0  0  0  0  0  0  0  0  0
   -3.0573   -0.4989    0.4493 C   0  0  0  0  0  0  0  0  0  0  0  0
    0.3878    1.5061    0.1716 N   0  0  0  0  0  0  0  0  0  0  0  0
   -0.1073   -0.3142   -1.1008 N   0  0  0  0  0  0  0  0  0  0  0  0
   -3.9438   -1.0329   -0.2695 O   0  0  0  0  0  0  0  0  0  0  0  0
   -2.2499   -1.2897    1.2610 O   0  0  0  0  0  0  0  0  0  0  0  0
  1  2  2  0
  1  3  1  0
  2  4  1  0
  3  7  2  0
  4  8  2  0
  5  6  1  0
  5  9  1  0
  6 10  1  0
  7  8  1  0
  7 11  1  0
  8 12  1  0
  9 11  2  0
  9 12  1  0
 10 13  2  0
 10 14  1  0
M  END
$$$$
