
     RDKit          3D

 23 25  0  0  0  0  0  0  0  0999 V2000
   -3.9282    0.9060   -1.8992 C   0  0  0  0  0  0  0  0  0  0  0  0
    6.1996   -0.1192   -0.0663 C   0  0  0  0  0  0  0  0  0  0  0  0
    6.0242    0.8707    0.9287 C   0  0  0  0  0  0  0  0  0  0  0  0
    5.1031   -0.5662   -0.8287 C   0  0  0  0  0  0  0  0  0  0  0  0
    4.7511    1.4217    1.1691 C   0  0  0  0  0  0  0  0  0  0  0  0
   -5.3370   -0.5476    1.1612 C   0  0  0  0  0  0  0  0  0  0  0  0
   -6.4313   -0.1491    0.4208 C   0  0  0  0  0  0  0  0  0  0  0  0
    0.3466    0.5690   -0.7931 C   0  0  0  0  0  0  0  0  0  0  0  0
   -4.7203    0.3694   -0.7504 C   0  0  0  0  0  0  0  0  0  0  0  0
   -4.2276   -0.2149    0.4096 C   0  0  0  0  0  0  0  0  0  0  0  0
    3.8586    0.0018   -0.5663 C   0  0  0  0  0  0  0  0  0  0  0  0
    3.6924    0.9561    0.3929 C   0  0  0  0  0  0  0  0  0  0  0  0
   -0.4281   -0.2598    0.2417 C   0  0  2  0  0  0  0  0  0  0  0  0
    1.8207    0.5543   -0.5181 C   0  0  0  0  0  0  0  0  0  0  0  0
   -2.8259   -0.4534    0.8012 C   0  0  0  0  0  0  0  0  0  0  0  0
   -0.0550   -1.7148    0.1427 C   0  0  0  0  0  0  0  0  0  0  0  0
    2.6842   -0.2786   -1.1589 N   0  0  0  0  0  0  0  0  0  0  0  0
    2.4046    1.3159    0.4403 N   0  0  0  0  0  0  0  0  0  0  0  0
   -1.8617   -0.0886    0.0050 N   0  0  0  0  0  0  0  0  0  0  0  0
   -2.5723   -1.0697    2.0304 O   0  0  0  0  0  0  0  0  0  0  0  0
   -0.4817   -2.4183   -0.8126 O   0  0  0  0  0  0  0  0  0  0  0  0
    0.7974   -2.2745    1.0892 O   0  0  0  0  0  0  0  0  0  0  0  0
   -6.0329    0.3914   -0.7083 O   0  0  0  0  0  0  0  0  0  0  0  0
  1  9  1  0
  2  3  2  0
  2  4  1  0
  3  5  1  0
  4 11  2  0
  5 12  2  0
  6  7  2  0
  6 10  1  0
  7 23  1  0
 13  8  1  6
  8 14  1  0
  9 10  2  0
  9 23  1  0
 10 15  1  0
 11 12  1  0
 11 17  1  0
 12 18  1  0
 13 16  1  0
 13 19  1  0
 14 17  2  0
 14 18  1  0
 15 19  2  3
 15 20  1  0
 16 21  2  0
 16 22  1  0
M  END
$$$$
