
     RDKit          3D

 22 24  0  0  0  0  0  0  0  0999 V2000
    6.1382   -0.4665    0.7168 C   0  0  0  0  0  0  0  0  0  0  0  0
    5.3280   -1.5973    0.6015 C   0  0  0  0  0  0  0  0  0  0  0  0
    5.5911    0.8046    0.5323 C   0  0  0  0  0  0  0  0  0  0  0  0
    3.9698   -1.4598    0.2995 C   0  0  0  0  0  0  0  0  0  0  0  0
    4.2333    0.9489    0.2295 C   0  0  0  0  0  0  0  0  0  0  0  0
   -3.8225   -1.4453   -0.6645 C   0  0  0  0  0  0  0  0  0  0  0  0
   -2.6622   -0.1302    1.1291 C   0  0  0  0  0  0  0  0  0  0  0  0
   -4.9648   -0.4336   -0.5303 C   0  0  0  0  0  0  0  0  0  0  0  0
   -3.8956    0.7782    1.1258 C   0  0  0  0  0  0  0  0  0  0  0  0
    3.4054   -0.1843    0.1056 C   0  0  0  0  0  0  0  0  0  0  0  0
   -0.0848   -0.5839   -0.5295 C   0  0  0  0  0  0  0  0  0  0  0  0
    0.0691    0.7679   -0.7996 C   0  0  0  0  0  0  0  0  0  0  0  0
    1.9611   -0.0568   -0.2133 C   0  0  0  0  0  0  0  0  0  0  0  0
   -1.3176   -1.3898   -0.5856 C   0  0  0  0  0  0  0  0  0  0  0  0
   -0.9247    1.7147   -1.3361 C   0  0  0  0  0  0  0  0  0  0  0  0
    1.1068   -1.1038   -0.1751 N   0  0  0  0  0  0  0  0  0  0  0  0
    1.3557    1.0921   -0.5869 N   0  0  0  0  0  0  0  0  0  0  0  0
   -2.5826   -0.8688   -0.1367 N   0  0  0  0  0  0  0  0  0  0  0  0
   -1.2442   -2.5759   -1.0066 O   0  0  0  0  0  0  0  0  0  0  0  0
   -2.0100    1.3027   -1.8242 O   0  0  0  0  0  0  0  0  0  0  0  0
   -0.6446    3.0774   -1.3373 O   0  0  0  0  0  0  0  0  0  0  0  0
   -5.0600    0.0443    0.7981 O   0  0  0  0  0  0  0  0  0  0  0  0
  1  2  2  0
  1  3  1  0
  2  4  1  0
  3  5  2  0
  4 10  2  0
  5 10  1  0
  6  8  1  0
  6 18  1  0
  7  9  1  0
  7 18  1  0
  8 22  1  0
  9 22  1  0
 10 13  1  0
 11 12  2  0
 11 14  1  0
 11 16  1  0
 12 15  1  0
 12 17  1  0
 13 16  2  0
 13 17  1  0
 14 18  1  0
 14 19  2  0
 15 20  2  0
 15 21  1  0
M  END
$$$$
