2WO8_077_C_1271_
     RDKit          3D

 20 21  0  0  0  0  0  0  0  0999 V2000
   45.9632   79.5412   25.4550 C   0  0  0  0  0  0  0  0  0  0  0  0
   44.8753   81.4911   27.0917 C   0  0  0  0  0  0  0  0  0  0  0  0
   45.5753   80.7952   24.9259 C   0  0  0  0  0  0  0  0  0  0  0  0
   45.8126   79.2541   26.8003 C   0  0  0  0  0  0  0  0  0  0  0  0
   45.2560   80.2518   27.6287 C   0  0  0  0  0  0  0  0  0  0  0  0
   45.0305   81.7861   25.7303 C   0  0  0  0  0  0  0  0  0  0  0  0
   44.5931   83.1373   25.2278 C   0  0  0  0  0  0  0  0  0  0  0  0
   41.4329   88.9795   22.4144 O   0  0  0  0  0  0  0  0  0  0  0  0
   44.2781   83.3788   23.9008 C   0  0  0  0  0  0  0  0  0  0  0  0
   43.8961   85.3954   25.7314 C   0  0  0  0  0  0  0  0  0  0  0  0
   43.0951   87.2483   22.4732 C   0  0  0  0  0  0  0  0  0  0  0  0
   42.8474   88.7714   22.2666 C   0  0  0  0  0  0  0  0  0  0  0  0
   43.5988   85.6283   24.3662 C   0  0  0  0  0  0  0  0  0  0  0  0
   44.3693   84.1680   26.1648 C   0  0  0  0  0  0  0  0  0  0  0  0
   43.7917   84.5958   23.4514 C   0  0  0  0  0  0  0  0  0  0  0  0
   43.0922   86.9598   23.9649 C   0  0  0  0  0  0  0  0  0  0  0  0
   43.3581   89.3587   20.9554 C   0  0  0  0  0  0  0  0  0  0  0  0
   44.8091   88.9989   20.7633 C   0  0  0  0  0  0  0  0  0  0  0  0
   45.0436   88.2218   19.8507 O   0  0  0  0  0  0  0  0  0  0  0  0
   45.6312   89.4996   21.5441 O   0  0  0  0  0  0  0  0  0  0  0  0
  1  3  2  0
  1  4  1  0
  2  5  1  0
  4  5  2  0
  2  6  2  0
  3  6  1  0
  6  7  1  0
  7  9  2  0
  8 12  1  0
 11 12  1  0
 10 13  1  0
  7 14  1  0
 10 14  2  0
  9 15  1  0
 13 15  2  0
 11 16  1  0
 13 16  1  0
 12 17  1  0
 17 18  1  0
 18 19  2  0
 18 20  1  0
M  END
$$$$
