
     RDKit          3D

 29 31  0  0  0  0  0  0  0  0999 V2000
    4.5377   -0.3187   -1.7301 C   0  0  0  0  0  0  0  0  0  0  0  0
    3.8223    1.3171   -0.0885 C   0  0  0  0  0  0  0  0  0  0  0  0
    5.8046    0.2720   -1.7635 C   0  0  0  0  0  0  0  0  0  0  0  0
    5.0909    1.9040   -0.1240 C   0  0  0  0  0  0  0  0  0  0  0  0
   -0.7579    0.6760    1.7477 C   0  0  0  0  0  0  0  0  0  0  0  0
   -2.0839    0.4982    1.3441 C   0  0  0  0  0  0  0  0  0  0  0  0
   -6.0602   -0.1225    0.0754 C   0  0  0  0  0  0  0  0  0  0  0  0
   -6.8163    0.6905   -0.7707 C   0  0  0  0  0  0  0  0  0  0  0  0
    2.1779   -0.4478   -0.8461 C   0  0  0  0  0  0  0  0  0  0  0  0
   -0.4673   -1.7246    1.8531 C   0  0  0  0  0  0  0  0  0  0  0  0
   -4.0668    0.5645   -1.1028 C   0  0  0  0  0  0  0  0  0  0  0  0
    3.5366    0.1990   -0.8907 C   0  0  0  0  0  0  0  0  0  0  0  0
    6.0816    1.3823   -0.9606 C   0  0  0  0  0  0  0  0  0  0  0  0
    0.0690   -0.4300    1.9741 C   0  0  0  0  0  0  0  0  0  0  0  0
   -4.6729   -0.1776   -0.0757 C   0  0  0  0  0  0  0  0  0  0  0  0
   -1.7945   -1.9033    1.4508 C   0  0  0  0  0  0  0  0  0  0  0  0
   -2.6048   -0.7962    1.1712 C   0  0  0  0  0  0  0  0  0  0  0  0
   -4.8588    1.3711   -1.9354 C   0  0  0  0  0  0  0  0  0  0  0  0
    2.2474   -1.8033   -0.1885 C   0  0  0  0  0  0  0  0  0  0  0  0
    2.4734   -0.8981    2.0598 C   0  0  0  0  0  0  0  0  0  0  0  0
    7.3111    1.9528   -0.9934 F   0  0  0  0  0  0  0  0  0  0  0  0
   -2.2954   -3.1582    1.3307 F   0  0  0  0  0  0  0  0  0  0  0  0
   -4.3187    2.0689   -2.8857 N   0  0  0  0  0  0  0  0  0  0  0  0
   -6.2085    1.4178   -1.7471 N   0  0  0  0  0  0  0  0  0  0  0  0
    1.4231   -0.2048    2.3987 N   0  0  0  0  0  0  0  0  0  0  0  0
    2.4042   -1.9577    1.0964 N   0  0  0  0  0  0  0  0  0  0  0  0
    2.1779   -2.9322   -0.9999 O   0  0  0  0  0  0  0  0  0  0  0  0
    3.7025   -0.6019    2.6396 O   0  0  0  0  0  0  0  0  0  0  0  0
   -3.9334   -1.0118    0.7758 O   0  0  0  0  0  0  0  0  0  0  0  0
  1  3  2  0
  1 12  1  0
  2  4  1  0
  2 12  2  0
  3 13  1  0
  4 13  2  0
  5  6  2  0
  5 14  1  0
  6 17  1  0
  7  8  2  0
  7 15  1  0
  8 24  1  0
  9 12  1  0
  9 19  1  0
 10 14  2  0
 10 16  1  0
 11 15  2  0
 11 18  1  0
 13 21  1  0
 14 25  1  0
 15 29  1  0
 16 17  2  0
 16 22  1  0
 17 29  1  0
 18 23  2  3
 18 24  1  0
 19 26  2  3
 19 27  1  0
 20 25  2  3
 20 26  1  0
 20 28  1  0
M  END
$$$$
