
     RDKit          3D

 39 43  0  0  0  0  0  0  0  0999 V2000
    8.1059    1.2399    1.0620 C   0  0  0  0  0  0  0  0  0  0  0  0
    8.1600    1.5329   -1.3464 C   0  0  0  0  0  0  0  0  0  0  0  0
    9.1482    2.1629    1.1971 C   0  0  0  0  0  0  0  0  0  0  0  0
    9.2043    2.4551   -1.2059 C   0  0  0  0  0  0  0  0  0  0  0  0
    1.2003   -0.5379    1.5856 C   0  0  0  0  0  0  0  0  0  0  0  0
    0.0394   -1.1572    1.1155 C   0  0  0  0  0  0  0  0  0  0  0  0
   -5.5867   -3.2583   -0.8978 C   0  0  0  0  0  0  0  0  0  0  0  0
   -5.0254    2.1559   -0.6469 C   0  0  0  0  0  0  0  0  0  0  0  0
   -6.5859    0.7040    0.7008 C   0  0  0  0  0  0  0  0  0  0  0  0
   -3.8614    1.2520   -0.2121 C   0  0  0  0  0  0  0  0  0  0  0  0
   -5.3840   -0.1849    1.0645 C   0  0  0  0  0  0  0  0  0  0  0  0
   -5.0767   -4.4943   -0.5257 C   0  0  0  0  0  0  0  0  0  0  0  0
    6.5258   -0.1340   -0.3514 C   0  0  0  0  0  0  0  0  0  0  0  0
    1.3094    0.7974   -0.4318 C   0  0  0  0  0  0  0  0  0  0  0  0
   -4.6032   -0.8871   -1.1798 C   0  0  0  0  0  0  0  0  0  0  0  0
   -1.5953   -4.9547    0.2694 C   0  0  0  0  0  0  0  0  0  0  0  0
    7.5890    0.9279   -0.2108 C   0  0  0  0  0  0  0  0  0  0  0  0
   -4.5173   -2.3653   -0.9268 C   0  0  0  0  0  0  0  0  0  0  0  0
    9.7019    2.7666    0.0647 C   0  0  0  0  0  0  0  0  0  0  0  0
   -6.1350    2.1463    0.4118 C   0  0  0  0  0  0  0  0  0  0  0  0
    1.8587    0.4200    0.8072 C   0  0  0  0  0  0  0  0  0  0  0  0
    0.1393    0.1861   -0.8991 C   0  0  0  0  0  0  0  0  0  0  0  0
   -0.4905   -0.8110   -0.1406 C   0  0  0  0  0  0  0  0  0  0  0  0
    5.3502    0.3259   -1.1785 C   0  0  0  0  0  0  0  0  0  0  0  0
   -3.4009   -3.0984   -0.5679 C   0  0  0  0  0  0  0  0  0  0  0  0
   -2.0742   -2.7144   -0.3766 C   0  0  0  0  0  0  0  0  0  0  0  0
    4.1323    1.3004    0.7010 C   0  0  0  0  0  0  0  0  0  0  0  0
   10.7309    3.6430    0.1999 F   0  0  0  0  0  0  0  0  0  0  0  0
   -0.3857    0.5653   -2.0936 F   0  0  0  0  0  0  0  0  0  0  0  0
   -7.2583    2.9729   -0.0337 N   0  0  0  0  0  0  0  0  0  0  0  0
   -1.1910   -3.6717    0.0325 N   0  0  0  0  0  0  0  0  0  0  0  0
   -2.9015   -5.2983    0.0876 N   0  0  0  0  0  0  0  0  0  0  0  0
    3.0269    1.0570    1.3433 N   0  0  0  0  0  0  0  0  0  0  0  0
    4.2982    0.8975   -0.6655 N   0  0  0  0  0  0  0  0  0  0  0  0
   -4.2983   -0.1344    0.0572 N   0  0  0  0  0  0  0  0  0  0  0  0
   -3.7556   -4.3673   -0.3323 N   0  0  0  0  0  0  0  0  0  0  0  0
    5.3785    0.0773   -2.5483 O   0  0  0  0  0  0  0  0  0  0  0  0
    5.1647    1.9624    1.3585 O   0  0  0  0  0  0  0  0  0  0  0  0
   -1.6611   -1.4011   -0.6368 O   0  0  0  0  0  0  0  0  0  0  0  0
  1  3  2  0
  1 17  1  0
  2  4  1  0
  2 17  2  0
  3 19  1  0
  4 19  2  0
  5  6  2  0
  5 21  1  0
  6 23  1  0
  7 12  2  0
  7 18  1  0
  8 10  1  0
  8 20  1  0
  9 11  1  0
  9 20  1  0
 10 35  1  0
 11 35  1  0
 12 36  1  0
 13 17  1  0
 13 24  1  0
 14 21  2  0
 14 22  1  0
 15 18  1  0
 15 35  1  0
 16 31  1  0
 16 32  2  0
 18 25  2  0
 19 28  1  0
 20 30  1  0
 21 33  1  0
 22 23  2  0
 22 29  1  0
 23 39  1  0
 24 34  2  3
 24 37  1  0
 25 26  1  0
 25 36  1  0
 26 31  2  0
 26 39  1  0
 27 33  2  3
 27 34  1  0
 27 38  1  0
 32 36  1  0
M  END
$$$$
