1O32_801_A_246_
     RDKit          3D

 30 32  0  0  0  0  0  0  0  0999 V2000
   44.0919   -3.0381   26.2032 C   0  0  0  0  0  0  0  0  0  0  0  0
   44.4657   -1.6943   26.4419 C   0  0  0  0  0  0  0  0  0  0  0  0
   44.3413   -1.1324   27.7330 C   0  0  0  0  0  0  0  0  0  0  0  0
   43.8536   -1.9352   28.7343 C   0  0  0  0  0  0  0  0  0  0  0  0
   43.4833   -3.2132   28.5170 C   0  0  0  0  0  0  0  0  0  0  0  0
   43.5864   -3.7924   27.2704 C   0  0  0  0  0  0  0  0  0  0  0  0
   44.2163   -3.6311   24.9363 C   0  0  0  0  0  0  0  0  0  0  0  0
   43.9435   -4.9062   24.7789 N   0  0  0  0  0  0  0  0  0  0  0  0
   44.6104   -2.9021   23.9240 N   0  0  0  0  0  0  0  0  0  0  0  0
   43.6362   -1.7229   29.9760 N   0  0  0  0  0  0  0  0  0  0  0  0
   43.0401   -3.8190   29.5882 N   0  0  0  0  0  0  0  0  0  0  0  0
   43.1676   -2.8376   30.4681 C   0  0  0  0  0  0  0  0  0  0  0  0
   42.8883   -2.9337   31.8423 C   0  0  0  0  0  0  0  0  0  0  0  0
   42.8748   -1.7989   32.5388 N   0  0  0  0  0  0  0  0  0  0  0  0
   42.6336   -1.7606   33.8371 C   0  0  0  0  0  0  0  0  0  0  0  0
   42.3763   -2.9311   34.5455 C   0  0  0  0  0  0  0  0  0  0  0  0
   42.3810   -4.1423   33.8658 C   0  0  0  0  0  0  0  0  0  0  0  0
   42.6358   -4.1703   32.4982 C   0  0  0  0  0  0  0  0  0  0  0  0
   42.6241   -5.4230   31.8851 O   0  0  0  0  0  0  0  0  0  0  0  0
   44.8573   -1.0769   25.6501 H   0  0  0  0  0  0  0  0  0  0  0  0
   44.6157   -0.1093   27.9442 H   0  0  0  0  0  0  0  0  0  0  0  0
   43.2733   -4.8167   27.1350 H   0  0  0  0  0  0  0  0  0  0  0  0
   43.6736   -5.4669   25.5767 H   0  0  0  0  0  0  0  0  0  0  0  0
   43.9976   -5.3732   23.9048 H   0  0  0  0  0  0  0  0  0  0  0  0
   44.7746   -1.9218   24.0757 H   0  0  0  0  0  0  0  0  0  0  0  0
   44.7584   -3.2336   22.9974 H   0  0  0  0  0  0  0  0  0  0  0  0
   43.7766   -0.9198   30.5177 H   0  0  0  0  0  0  0  0  0  0  0  0
   42.6206   -0.8149   34.3548 H   0  0  0  0  0  0  0  0  0  0  0  0
   42.1744   -2.9088   35.6076 H   0  0  0  0  0  0  0  0  0  0  0  0
   42.1922   -5.0662   34.3972 H   0  0  0  0  0  0  0  0  0  0  0  0
  1  2  2  0
  2  3  1  0
  3  4  2  0
  4  5  1  0
  1  6  1  0
  5  6  2  0
  1  7  1  0
  7  8  1  0
  7  9  2  0
  4 10  1  0
  5 11  1  0
 10 12  1  0
 11 12  2  0
 12 13  1  0
 13 14  2  0
 14 15  1  0
 15 16  2  0
 16 17  1  0
 13 18  1  0
 17 18  2  0
 18 19  1  0
  2 20  1  0
  3 21  1  0
  6 22  1  0
  8 23  1  0
  8 24  1  0
  9 25  1  0
  9 26  1  0
 10 27  1  0
 15 28  1  0
 16 29  1  0
 17 30  1  0
M  CHG  2   9   1  19  -1
M  END
$$$$
