
     RDKit          3D

 14 15  0  0  0  0  0  0  0  0999 V2000
    3.2044   -1.7564   -0.2257 C   0  0  0  0  0  0  0  0  0  0  0  0
    3.0844   -0.6606    0.6341 C   0  0  0  0  0  0  0  0  0  0  0  0
    2.1867   -2.0425   -1.1404 C   0  0  0  0  0  0  0  0  0  0  0  0
   -2.4845    2.4566   -0.5388 C   0  0  0  0  0  0  0  0  0  0  0  0
   -1.2359    2.8750   -0.9970 C   0  0  0  0  0  0  0  0  0  0  0  0
    1.9450    0.1484    0.5833 C   0  0  0  0  0  0  0  0  0  0  0  0
    1.0457   -1.2358   -1.1941 C   0  0  0  0  0  0  0  0  0  0  0  0
   -2.6404    1.1784    0.0014 C   0  0  0  0  0  0  0  0  0  0  0  0
   -0.1383    2.0166   -0.9180 C   0  0  0  0  0  0  0  0  0  0  0  0
   -1.7505   -1.0485    0.7409 C   0  0  0  0  0  0  0  0  0  0  0  0
    0.9137   -0.1425   -0.3233 C   0  0  0  0  0  0  0  0  0  0  0  0
   -1.5501    0.2930    0.0750 C   0  0  0  0  0  0  0  0  0  0  0  0
   -0.2803    0.7237   -0.3881 C   0  0  0  0  0  0  0  0  0  0  0  0
   -1.4307   -0.9527    2.1613 N   0  0  0  0  0  0  0  0  0  0  0  0
  1  2  2  0
  1  3  1  0
  2  6  1  0
  3  7  2  0
  4  5  2  0
  4  8  1  0
  5  9  1  0
  6 11  2  0
  7 11  1  0
  8 12  2  0
  9 13  2  0
 10 12  1  0
 10 14  1  0
 11 13  1  0
 12 13  1  0
M  END
$$$$
