3K97_4CD_A_901_
     RDKit          3D

 23 25  0  0  0  0  0  0  0  0999 V2000
   17.0857   -3.5387   50.6361 N   0  0  0  0  0  0  0  0  0  0  0  0
   16.9550   -2.9651   52.0099 C   0  0  0  0  0  0  0  0  0  0  0  0
   15.5050   -2.9248   52.5841 C   0  0  0  0  0  0  0  0  0  0  0  0
   14.4925   -3.8604   52.1394 C   0  0  0  0  0  0  0  0  0  0  0  0
   13.1738   -3.8219   52.6554 C   0  0  0  0  0  0  0  0  0  0  0  0
   12.8199   -2.8591   53.6247 C   0  0  0  0  0  0  0  0  0  0  0  0
   15.1220   -1.9406   53.5822 C   0  0  0  0  0  0  0  0  0  0  0  0
   14.8693   -1.3317   49.6116 C   0  0  0  0  0  0  0  0  0  0  0  0
   15.1526    1.0683   49.1413 C   0  0  0  0  0  0  0  0  0  0  0  0
   17.0550   -0.4665   48.8831 C   0  0  0  0  0  0  0  0  0  0  0  0
   17.8513   -3.8832   52.8619 C   0  0  0  0  0  0  0  0  0  0  0  0
   17.8237   -5.2385   52.1582 C   0  0  0  0  0  0  0  0  0  0  0  0
   17.6594   -4.8915   50.6849 C   0  0  0  0  0  0  0  0  0  0  0  0
   13.7816   -1.9285   54.0831 C   0  0  0  0  0  0  0  0  0  0  0  0
   16.0777   -0.9061   54.1315 C   0  0  0  0  0  0  0  0  0  0  0  0
   16.2439   -1.5614   49.2878 C   0  0  0  0  0  0  0  0  0  0  0  0
   14.3250   -0.0185   49.5389 C   0  0  0  0  0  0  0  0  0  0  0  0
   16.5149    0.8458   48.8113 C   0  0  0  0  0  0  0  0  0  0  0  0
   18.3603   -0.6036   48.5537 O   0  0  0  0  0  0  0  0  0  0  0  0
   14.6428    2.3342   49.0764 O   0  0  0  0  0  0  0  0  0  0  0  0
   16.8184   -2.9463   49.3763 C   0  0  0  0  0  0  0  0  0  0  0  0
   17.0498   -3.5051   48.3030 O   0  0  0  0  0  0  0  0  0  0  0  0
   12.6638    0.2099   49.9399 Cl  0  0  0  0  0  0  0  0  0  0  0  0
  1  2  1  0
  2  3  1  0
  3  4  2  0
  4  5  1  0
  5  6  2  0
  3  7  1  0
  2 11  1  0
 11 12  1  0
  1 13  1  0
 12 13  1  0
  6 14  1  0
  7 14  2  0
  7 15  1  0
  8 16  2  0
 10 16  1  0
  8 17  1  0
  9 17  2  0
  9 18  1  0
 10 18  2  0
 10 19  1  0
  9 20  1  0
  1 21  1  0
 16 21  1  0
 21 22  2  0
 17 23  1  0
M  END
$$$$
