
     RDKit          3D

 18 19  0  0  0  0  0  0  0  0999 V2000
   -6.0757    0.4204    0.1219 C   0  0  0  0  0  0  0  0  0  0  0  0
    5.6039    0.7931   -0.5108 C   0  0  0  0  0  0  0  0  0  0  0  0
   -3.4036   -0.1153   -1.0469 C   0  0  0  0  0  0  0  0  0  0  0  0
   -2.1142   -0.3600   -1.5537 C   0  0  0  0  0  0  0  0  0  0  0  0
   -2.4737    0.3329    1.1727 C   0  0  0  0  0  0  0  0  0  0  0  0
    0.0320    0.1092    1.2294 C   0  0  0  0  0  0  0  0  0  0  0  0
   -1.2123    0.0841    0.6380 C   0  0  0  0  0  0  0  0  0  0  0  0
   -3.5915    0.2329    0.3205 C   0  0  0  0  0  0  0  0  0  0  0  0
   -1.0373   -0.2505   -0.6779 C   0  0  0  0  0  0  0  0  0  0  0  0
    0.9212   -0.2218    0.2085 C   0  0  0  0  0  0  0  0  0  0  0  0
    2.3806   -0.3223    0.3619 C   0  0  0  0  0  0  0  0  0  0  0  0
    0.2630   -0.4409   -0.9561 N   0  0  0  0  0  0  0  0  0  0  0  0
    3.1060   -0.6408   -0.6704 N   0  0  0  0  0  0  0  0  0  0  0  0
    2.9413   -0.0714    1.6173 O   0  0  0  0  0  0  0  0  0  0  0  0
    5.2809   -1.7310    0.4012 O   0  0  0  0  0  0  0  0  0  0  0  0
    5.2438   -1.3839   -2.0151 O   0  0  0  0  0  0  0  0  0  0  0  0
   -4.8608    0.4840    0.8615 O   0  0  0  0  0  0  0  0  0  0  0  0
    4.8333   -0.8019   -0.6923 S   0  0  0  0  0  6  0  0  0  0  0  0
  1 17  1  0
  2 18  1  0
  3  4  2  0
  3  8  1  0
  4  9  1  0
  5  7  1  0
  5  8  2  0
  6  7  1  0
  6 10  2  0
  7  9  2  0
  8 17  1  0
  9 12  1  0
 10 11  1  0
 10 12  1  0
 11 13  2  3
 11 14  1  0
 13 18  1  0
 15 18  2  0
 16 18  2  0
M  END
$$$$
