3ML2_SU0_A_263_
     RDKit          3D

 42 44  0  0  0  0  0  0  0  0999 V2000
   -5.0750    2.6800   15.6910 C   0  0  0  0  0  0  0  0  0  0  0  0
   -5.1060    0.0910   15.9930 N   0  0  0  0  0  0  0  0  0  0  0  0
   -7.2100    1.4060   16.5130 O   0  0  0  0  0  0  0  0  0  0  0  0
   -5.7980    1.3740   16.6360 S   0  0  0  0  0  0  0  0  0  0  0  0
   -3.6170    2.5500   15.4460 C   0  0  0  0  0  0  0  0  0  0  0  0
   -5.3030    1.5770   17.9740 O   0  0  0  0  0  0  0  0  0  0  0  0
   -2.9840    3.5100   14.7140 C   0  0  0  0  0  0  0  0  0  0  0  0
   -4.5980    6.9030   12.8100 O   0  0  0  0  0  0  0  0  0  0  0  0
   -3.7540    4.6400   14.1870 C   0  0  0  0  0  0  0  0  0  0  0  0
   -0.0880    9.6640   15.4990 O   0  0  0  0  0  0  0  0  0  0  0  0
   -5.1170    4.7650   14.3780 C   0  0  0  0  0  0  0  0  0  0  0  0
   -5.8110    3.7190   15.1860 C   0  0  0  0  0  0  0  0  0  0  0  0
   -3.4100    6.5970   12.6710 C   0  0  0  0  0  0  0  0  0  0  0  0
   -2.8850    5.5470   13.4810 N   0  0  0  0  0  0  0  0  0  0  0  0
   -2.3820    7.3990   11.8870 C   0  0  0  0  0  0  0  0  0  0  0  0
   -1.9770    8.6050   12.6850 C   0  0  0  0  0  0  0  0  0  0  0  0
   -1.2240    8.5340   13.8610 C   0  0  0  0  0  0  0  0  0  0  0  0
   -0.7760    9.7090   14.4830 C   0  0  0  0  0  0  0  0  0  0  0  0
   -1.0070   11.0000   14.0250 O   0  0  0  0  0  0  0  0  0  0  0  0
   -1.8970   11.0920   12.9230 C   0  0  0  0  0  0  0  0  0  0  0  0
   -2.3480   12.4460   12.5520 C   0  0  0  0  0  0  0  0  0  0  0  0
   -3.2370   12.6170   11.5220 C   0  0  0  0  0  0  0  0  0  0  0  0
   -3.8100   11.4060   10.8330 C   0  0  0  0  0  0  0  0  0  0  0  0
   -3.4090   10.1370   11.1830 C   0  0  0  0  0  0  0  0  0  0  0  0
   -2.4270    9.9600   12.2890 C   0  0  0  0  0  0  0  0  0  0  0  0
   -3.6180   13.9110   11.1190 O   0  0  0  0  0  0  0  0  0  0  0  0
   -2.7720   15.0800   11.2160 C   0  0  0  0  0  0  0  0  0  0  0  0
   -0.8830    7.7210   14.2640 H   0  0  0  0  0  0  0  0  0  0  0  0
   -1.9640   14.9410   10.6890 H   0  0  0  0  0  0  0  0  0  0  0  0
   -3.2520   15.8580   10.8760 H   0  0  0  0  0  0  0  0  0  0  0  0
   -2.5300   15.2290   12.1490 H   0  0  0  0  0  0  0  0  0  0  0  0
   -3.1190    1.8010   15.8120 H   0  0  0  0  0  0  0  0  0  0  0  0
   -2.0310    3.4540   14.5560 H   0  0  0  0  0  0  0  0  0  0  0  0
   -1.9720   13.2180   13.0000 H   0  0  0  0  0  0  0  0  0  0  0  0
   -5.6030    5.5250   14.0210 H   0  0  0  0  0  0  0  0  0  0  0  0
   -6.7660    3.7750   15.3520 H   0  0  0  0  0  0  0  0  0  0  0  0
   -4.4410   11.5240   10.1070 H   0  0  0  0  0  0  0  0  0  0  0  0
   -2.0030    5.3470   13.4200 H   0  0  0  0  0  0  0  0  0  0  0  0
   -3.7760    9.3660   10.7260 H   0  0  0  0  0  0  0  0  0  0  0  0
   -2.7750    7.6810   11.0410 H   0  0  0  0  0  0  0  0  0  0  0  0
   -1.5970    6.8520   11.7140 H   0  0  0  0  0  0  0  0  0  0  0  0
   -5.1690   -0.0580   15.1010 H   0  0  0  0  0  0  0  0  0  0  0  0
  1  4  1  0
  2  4  1  0
  3  4  2  0
  1  5  2  0
  4  6  2  0
  5  7  1  0
  7  9  2  0
  9 11  1  0
  1 12  1  0
 11 12  2  0
  8 13  2  0
  9 14  1  0
 13 14  1  0
 13 15  1  0
 15 16  1  0
 16 17  2  0
 10 18  2  0
 17 18  1  0
 18 19  1  0
 19 20  1  0
 20 21  1  0
 21 22  2  0
 22 23  1  0
 23 24  2  0
 16 25  1  0
 20 25  2  0
 24 25  1  0
 22 26  1  0
 26 27  1  0
 17 28  1  0
 27 29  1  0
 27 30  1  0
 27 31  1  0
  5 32  1  0
  7 33  1  0
 21 34  1  0
 11 35  1  0
 12 36  1  0
 23 37  1  0
 14 38  1  0
 24 39  1  0
 15 40  1  0
 15 41  1  0
  2 42  1  0
M  END
$$$$
