3OYS_OYS_A_263_
     RDKit          3D

 20 21  0  0  0  0  0  0  0  0999 V2000
   -5.2805   -0.0706   16.0039 N   0  0  0  0  0  0  0  0  0  0  0  0
   -4.6649    6.9921   12.7715 O   0  0  0  0  0  0  0  0  0  0  0  0
   -7.1895    1.5772   16.4402 O   0  0  0  0  0  0  0  0  0  0  0  0
   -5.2643    1.5420   17.9512 O   0  0  0  0  0  0  0  0  0  0  0  0
   -1.2830   10.9551   14.1977 C   0  0  0  0  0  0  0  0  0  0  0  0
   -1.9114   11.1243   12.9688 C   0  0  0  0  0  0  0  0  0  0  0  0
   -1.0476    9.6785   14.7476 C   0  0  0  0  0  0  0  0  0  0  0  0
   -2.2884    9.9877   12.2570 C   0  0  0  0  0  0  0  0  0  0  0  0
   -1.4506    8.5518   14.0167 C   0  0  0  0  0  0  0  0  0  0  0  0
   -3.0203    3.5360   14.6091 C   0  0  0  0  0  0  0  0  0  0  0  0
   -5.1255    4.6867   14.3351 C   0  0  0  0  0  0  0  0  0  0  0  0
   -3.6454    2.5459   15.3485 C   0  0  0  0  0  0  0  0  0  0  0  0
   -5.7485    3.6846   15.0856 C   0  0  0  0  0  0  0  0  0  0  0  0
   -2.4549    7.5121   12.0194 C   0  0  0  0  0  0  0  0  0  0  0  0
   -2.9811    5.5414   13.3762 N   0  0  0  0  0  0  0  0  0  0  0  0
   -3.4793    6.6951   12.7380 C   0  0  0  0  0  0  0  0  0  0  0  0
   -2.0240    8.7120   12.7809 C   0  0  0  0  0  0  0  0  0  0  0  0
   -3.7453    4.6040   14.1084 C   0  0  0  0  0  0  0  0  0  0  0  0
   -5.0155    2.6178   15.6133 C   0  0  0  0  0  0  0  0  0  0  0  0
   -5.7671    1.3487   16.5882 S   0  0  0  0  0  0  0  0  0  0  0  0
  5  6  2  0
  5  7  1  0
  6  8  1  0
  7  9  2  0
 10 12  2  0
 11 13  1  0
  2 16  2  0
 14 16  1  0
 15 16  1  0
  8 17  2  0
  9 17  1  0
 14 17  1  0
 10 18  1  0
 11 18  2  0
 15 18  1  0
 12 19  1  0
 13 19  2  0
  1 20  1  0
  3 20  2  0
  4 20  2  0
 19 20  1  0
M  END
$$$$
