1XDD_AAY_A_401_AB
     RDKit          3D

 44 48  0  0  0  0  0  0  0  0999 V2000
   29.1670   85.3540   38.8860 O   0  0  0  0  0  0  0  0  0  0  0  0
   29.7230   86.2550   38.2960 C   0  0  0  0  0  0  0  0  0  0  0  0
   29.1350   86.9140   37.0540 C   0  0  0  0  0  0  0  0  0  0  0  0
   28.7540   85.8550   36.0080 C   0  0  0  0  0  0  0  0  0  0  0  0
   27.8940   87.7040   37.4450 C   0  0  0  0  0  0  0  0  0  0  0  0
   28.2410   88.7810   38.4910 C   0  0  0  0  0  0  0  0  0  0  0  0
   30.8820   86.8020   38.6570 O   0  0  0  0  0  0  0  0  0  0  0  0
   31.6430   86.1280   39.6900 C   0  0  0  0  0  0  0  0  0  0  0  0
   32.2890   84.8370   39.1730 C   0  0  0  0  0  0  0  0  0  0  0  0
   33.3240   85.1000   38.0670 C   0  0  0  0  0  0  0  0  0  0  0  0
   32.7270   84.9580   36.6380 C   0  0  0  0  0  0  0  0  0  0  0  0
   33.9480   86.4520   38.0870 C   0  0  0  0  0  0  0  0  0  0  0  0
   33.7310   87.3600   39.0360 C   0  0  0  0  0  0  0  0  0  0  0  0
   32.7210   87.1360   40.1510 C   0  0  0  0  0  0  0  0  0  0  0  0
   34.4430   88.5050   38.9530 C   0  0  0  0  0  0  0  0  0  0  0  0
   34.3460   89.4710   39.8620 C   0  0  0  0  0  0  0  0  0  0  0  0
   33.2230   89.5060   40.8810 C   0  0  0  0  0  0  0  0  0  0  0  0
   33.8410   89.2000   42.2700 C   0  0  0  0  0  0  0  0  0  0  0  0
   32.1100   88.5150   40.5100 C   0  0  0  0  0  0  0  0  0  0  0  0
   30.9840   88.3680   41.6010 C   0  0  0  0  0  0  0  0  0  0  0  0
   30.4750   89.7330   42.1220 C   0  0  0  0  0  0  0  0  0  0  0  0
   29.3430   89.6190   43.1780 C   0  0  0  0  0  0  0  0  0  0  0  0
   29.7070   88.9010   44.4010 N   0  0  0  0  0  0  0  0  0  0  0  0
   28.8580   88.0190   44.9870 C   0  0  0  0  0  0  0  0  0  0  0  0
   29.1390   87.4550   46.0250 O   0  0  0  0  0  0  0  0  0  0  0  0
   27.5150   87.6950   44.4260 C   0  0  0  0  0  0  0  0  0  0  0  0
   26.9890   88.8510   43.5730 C   0  0  0  0  0  0  0  0  0  0  0  0
   25.7750   88.4650   42.9330 O   0  0  0  0  0  0  0  0  0  0  0  0
   28.0770   89.0560   42.5080 C   0  0  0  0  0  0  0  0  0  0  0  0
   30.9690   89.1450   45.0580 C   0  0  0  0  0  0  0  0  0  0  0  0
   30.8210   90.4090   45.8560 C   0  0  0  0  0  0  0  0  0  0  0  0
   31.2340   91.6260   45.3320 C   0  0  0  0  0  0  0  0  0  0  0  0
   31.0940   92.8040   46.0580 C   0  0  0  0  0  0  0  0  0  0  0  0
   30.5330   92.7450   47.3400 C   0  0  0  0  0  0  0  0  0  0  0  0
   30.3700   93.9040   48.1170 C   0  0  0  0  0  0  0  0  0  0  0  0
   30.8120   95.2890   47.6190 C   0  0  0  0  0  0  0  0  0  0  0  0
   30.0640   95.6950   46.4720 O   0  0  0  0  0  0  0  0  0  0  0  0
   29.7900   93.7890   49.3850 C   0  0  0  0  0  0  0  0  0  0  0  0
   29.6220   94.9180   50.1740 O   0  0  0  0  0  0  0  0  0  0  0  0
   28.2370   95.3000   50.3360 C   0  0  0  0  0  0  0  0  0  0  0  0
   29.3730   92.5510   49.8860 C   0  0  0  0  0  0  0  0  0  0  0  0
   29.5440   91.4070   49.1180 C   0  0  0  0  0  0  0  0  0  0  0  0
   30.1190   91.5080   47.8540 C   0  0  0  0  0  0  0  0  0  0  0  0
   30.2530   90.3390   47.1130 C   0  0  0  0  0  0  0  0  0  0  0  0
  1  2  2  0
  2  3  1  0
  3  4  1  0
  3  5  1  0
  5  6  1  0
  2  7  1  0
  7  8  1  0
  8  9  1  0
  9 10  1  0
 10 11  1  0
 10 12  1  0
 12 13  2  0
  8 14  1  0
 13 14  1  0
 13 15  1  0
 15 16  2  0
 16 17  1  0
 17 18  1  0
 14 19  1  0
 17 19  1  0
 19 20  1  0
 20 21  1  0
 21 22  1  0
 22 23  1  0
 23 24  1  0
 24 25  2  0
 24 26  1  0
 26 27  1  0
 27 28  1  0
 22 29  1  0
 27 29  1  0
 23 30  1  0
 30 31  1  0
 31 32  2  0
 32 33  1  0
 33 34  2  0
 34 35  1  0
 35 36  1  0
 36 37  1  0
 35 38  2  0
 38 39  1  0
 39 40  1  0
 38 41  1  0
 41 42  2  0
 34 43  1  0
 42 43  1  0
 31 44  1  0
 43 44  2  0
M  END
$$$$
