
     RDKit          3D

 16 18  0  0  0  0  0  0  0  0999 V2000
    0.5827   -1.7061   -0.2473 C   0  0  0  0  0  0  0  0  0  0  0  0
   -1.7728    1.7291    0.2977 C   0  0  0  0  0  0  0  0  0  0  0  0
   -0.8092   -1.7875   -0.3377 C   0  0  0  0  0  0  0  0  0  0  0  0
   -3.1604    1.6265    0.2047 C   0  0  0  0  0  0  0  0  0  0  0  0
    3.4372    0.7523   -0.2142 C   0  0  0  0  0  0  0  0  0  0  0  0
    4.8068    0.6031   -0.0505 C   0  0  0  0  0  0  0  0  0  0  0  0
    0.4226    0.6706    0.2050 C   0  0  0  0  0  0  0  0  0  0  0  0
    3.4986   -1.4565    0.5427 C   0  0  0  0  0  0  0  0  0  0  0  0
    1.2150   -0.4784    0.0234 C   0  0  0  0  0  0  0  0  0  0  0  0
   -0.9753    0.5935    0.1160 C   0  0  0  0  0  0  0  0  0  0  0  0
    2.6954   -0.3979    0.1172 C   0  0  0  0  0  0  0  0  0  0  0  0
   -1.5984   -0.6437   -0.1577 C   0  0  0  0  0  0  0  0  0  0  0  0
   -3.7475    0.3821   -0.0703 C   0  0  0  0  0  0  0  0  0  0  0  0
   -5.0363    0.2684   -0.1606 N   0  0  0  0  0  0  0  0  0  0  0  0
   -2.9593   -0.7177   -0.2441 N   0  0  0  0  0  0  0  0  0  0  0  0
    5.1004   -0.9528    0.5055 S   0  0  0  0  0  0  0  0  0  0  0  0
  1  3  2  0
  1  9  1  0
  2  4  2  0
  2 10  1  0
  3 12  1  0
  4 13  1  0
  5  6  2  0
  5 11  1  0
  6 16  1  0
  7  9  2  0
  7 10  1  0
  8 11  2  0
  8 16  1  0
  9 11  1  0
 10 12  2  0
 12 15  1  0
 13 14  2  3
 13 15  1  0
M  END
$$$$
