3RSX_RSV_A_397_
     RDKit          3D

 16 18  0  0  0  0  0  0  0  0999 V2000
   21.6594   34.7846   56.7780 C   0  0  0  0  0  0  0  0  0  0  0  0
   21.3685   33.4193   56.8358 C   0  0  0  0  0  0  0  0  0  0  0  0
   21.8084   32.5738   55.8169 C   0  0  0  0  0  0  0  0  0  0  0  0
   22.9846   32.2421   53.7008 C   0  0  0  0  0  0  0  0  0  0  0  0
   24.2329   32.3929   53.1727 C   0  0  0  0  0  0  0  0  0  0  0  0
   22.3052   31.2055   53.1770 C   0  0  0  0  0  0  0  0  0  0  0  0
   21.2619   35.6120   57.7582 N   0  0  0  0  0  0  0  0  0  0  0  0
   20.5689   35.1581   58.8242 C   0  0  0  0  0  0  0  0  0  0  0  0
   20.6494   32.9170   57.9206 C   0  0  0  0  0  0  0  0  0  0  0  0
   20.2426   33.7995   58.9288 C   0  0  0  0  0  0  0  0  0  0  0  0
   20.1770   36.0138   59.7680 N   0  0  0  0  0  0  0  0  0  0  0  0
   22.3884   35.2906   55.7027 C   0  0  0  0  0  0  0  0  0  0  0  0
   22.8228   34.4450   54.6790 C   0  0  0  0  0  0  0  0  0  0  0  0
   22.5239   33.0823   54.7203 C   0  0  0  0  0  0  0  0  0  0  0  0
   24.6267   31.5443   52.2102 C   0  0  0  0  0  0  0  0  0  0  0  0
   23.3314   30.5044   52.0069 S   0  0  0  0  0  0  0  0  0  0  0  0
  1  2  1  0
  2  3  2  0
  4  5  1  0
  4  6  2  0
  1  7  1  0
  7  8  2  0
  2  9  1  0
  8 10  1  0
  9 10  2  0
  8 11  1  0
  1 12  2  0
 12 13  1  0
  3 14  1  0
  4 14  1  0
 13 14  2  0
  5 15  2  0
  6 16  1  0
 15 16  1  0
M  END
$$$$
