
     RDKit          3D

 21 23  0  0  0  0  0  0  0  0999 V2000
   -5.4463   -0.9464   -0.5741 C   0  0  0  0  0  0  0  0  0  0  0  0
    3.2345   -0.0220   -2.1614 C   0  0  0  0  0  0  0  0  0  0  0  0
    1.8502    0.1120   -2.3777 C   0  0  0  0  0  0  0  0  0  0  0  0
   -3.0288   -0.3761   -0.1760 C   0  0  0  0  0  0  0  0  0  0  0  0
   -4.6522    0.1843    1.5270 C   0  0  0  0  0  0  0  0  0  0  0  0
    2.8667   -0.1756    0.2559 C   0  0  0  0  0  0  0  0  0  0  0  0
   -4.3510   -0.3874    0.2857 C   0  0  0  0  0  0  0  0  0  0  0  0
    3.7559   -0.1691   -0.8466 C   0  0  0  0  0  0  0  0  0  0  0  0
   -1.9974    0.1665    0.6088 C   0  0  0  0  0  0  0  0  0  0  0  0
   -3.6434    0.7463    2.3144 C   0  0  0  0  0  0  0  0  0  0  0  0
    1.0166    0.1014   -1.2648 C   0  0  0  0  0  0  0  0  0  0  0  0
    1.5061   -0.0339   -0.0032 C   0  0  0  0  0  0  0  0  0  0  0  0
   -2.3091    0.7500    1.8569 C   0  0  0  0  0  0  0  0  0  0  0  0
    5.2189   -0.3073   -0.6376 C   0  0  0  0  0  0  0  0  0  0  0  0
   -0.6103    0.1320    0.0891 C   0  0  0  0  0  0  0  0  0  0  0  0
   -4.1431    1.5148    3.9983 Br  0  0  0  0  0  0  0  0  0  0  0  0
    5.6897   -1.0809    0.2910 N   0  0  0  0  0  0  0  0  0  0  0  0
    6.1356    0.4089   -1.4691 N   0  0  0  0  0  0  0  0  0  0  0  0
   -0.3238    0.2015   -1.2399 N   0  0  0  0  0  0  0  0  0  0  0  0
    0.4917   -0.0194    0.8697 N   0  0  0  0  0  0  0  0  0  0  0  0
   -1.2975    1.3515    2.6092 O   0  0  0  0  0  0  0  0  0  0  0  0
  1  7  1  0
  2  3  2  0
  2  8  1  0
  3 11  1  0
  4  7  2  0
  4  9  1  0
  5  7  1  0
  5 10  2  0
  6  8  2  0
  6 12  1  0
  8 14  1  0
  9 13  2  0
  9 15  1  0
 10 13  1  0
 10 16  1  0
 11 12  2  0
 11 19  1  0
 12 20  1  0
 13 21  1  0
 14 17  2  3
 14 18  1  0
 15 19  2  0
 15 20  1  0
M  END
$$$$
