
     RDKit          3D

 22 23  0  0  0  0  0  0  0  0999 V2000
    5.6203   -0.5542    0.8794 C   0  0  0  0  0  0  0  0  0  0  0  0
    4.4840   -1.2656    1.2746 C   0  0  0  0  0  0  0  0  0  0  0  0
    5.4840    0.6477    0.1791 C   0  0  0  0  0  0  0  0  0  0  0  0
   -2.9630   -1.1109    1.2720 C   0  0  0  0  0  0  0  0  0  0  0  0
    3.2102   -0.7809    0.9621 C   0  0  0  0  0  0  0  0  0  0  0  0
    4.2115    1.1356   -0.1355 C   0  0  0  0  0  0  0  0  0  0  0  0
   -4.1696   -0.6040    0.7908 C   0  0  0  0  0  0  0  0  0  0  0  0
   -1.7533   -0.6149    0.7909 C   0  0  0  0  0  0  0  0  0  0  0  0
    1.7311    0.9693   -0.0613 C   0  0  0  0  0  0  0  0  0  0  0  0
    3.0668    0.4113    0.2300 C   0  0  0  0  0  0  0  0  0  0  0  0
   -4.1845    0.4129   -0.1789 C   0  0  0  0  0  0  0  0  0  0  0  0
   -1.7396    0.4092   -0.1715 C   0  0  0  0  0  0  0  0  0  0  0  0
    0.7045    0.2969   -0.6104 C   0  0  0  0  0  0  0  0  0  0  0  0
   -2.9513    0.9472   -0.6352 C   0  0  0  0  0  0  0  0  0  0  0  0
   -5.4937    0.8575   -0.7055 C   0  0  0  0  0  0  0  0  0  0  0  0
    0.8417   -1.0437   -1.2410 C   0  0  0  0  0  0  0  0  0  0  0  0
   -2.8875    2.0268   -1.5205 O   0  0  0  0  0  0  0  0  0  0  0  0
   -5.6196    1.2055   -1.9100 O   0  0  0  0  0  0  0  0  0  0  0  0
   -6.6159    0.8335    0.1184 O   0  0  0  0  0  0  0  0  0  0  0  0
   -0.1889   -1.6962   -1.5560 O   0  0  0  0  0  0  0  0  0  0  0  0
    2.0915   -1.5603   -1.5721 O   0  0  0  0  0  0  0  0  0  0  0  0
   -0.5355    0.9494   -0.6500 O   0  0  0  0  0  0  0  0  0  0  0  0
  1  2  2  0
  1  3  1  0
  2  5  1  0
  3  6  2  0
  4  7  2  0
  4  8  1  0
  5 10  2  0
  6 10  1  0
  7 11  1  0
  8 12  2  0
  9 10  1  0
  9 13  2  0
 11 14  2  0
 11 15  1  0
 12 14  1  0
 12 22  1  0
 13 16  1  0
 13 22  1  0
 14 17  1  0
 15 18  2  0
 15 19  1  0
 16 20  2  0
 16 21  1  0
M  END
$$$$
