
     RDKit          3D

 11 11  0  0  0  0  0  0  0  0999 V2000
    2.4718    0.3508    0.3507 C   0  0  0  0  0  0  0  0  0  0  0  0
    1.9890   -0.9575    0.3978 C   0  0  0  0  0  0  0  0  0  0  0  0
    1.6215    1.3963   -0.0144 C   0  0  0  0  0  0  0  0  0  0  0  0
    0.6556   -1.2239    0.0770 C   0  0  0  0  0  0  0  0  0  0  0  0
    0.2827    1.1411   -0.3379 C   0  0  0  0  0  0  0  0  0  0  0  0
   -0.2092   -0.1827   -0.2990 C   0  0  0  0  0  0  0  0  0  0  0  0
   -0.7364    2.5079   -0.7761 Cl  0  0  0  0  0  0  0  0  0  0  0  0
   -2.9256   -0.0391    0.5976 N   0  0  0  0  0  0  0  0  0  0  0  0
   -2.0599   -2.0405   -0.8771 O   0  0  0  0  0  0  0  0  0  0  0  0
   -2.2896    0.1281   -1.9666 O   0  0  0  0  0  0  0  0  0  0  0  0
   -1.8939   -0.5583   -0.6895 S   0  0  0  0  0  6  0  0  0  0  0  0
  1  2  2  0
  1  3  1  0
  2  4  1  0
  3  5  2  0
  4  6  2  0
  5  6  1  0
  5  7  1  0
  6 11  1  0
  8 11  1  0
  9 11  2  0
 10 11  2  0
M  END
$$$$
