
     RDKit          3D

 34 40  0  0  0  0  0  0  0  0999 V2000
   -3.3504   -4.1485    0.6624 C   0  0  0  0  0  0  0  0  0  0  0  0
   -2.0598   -3.8766    1.4113 C   0  0  0  0  0  0  0  0  0  0  0  0
    4.0986    0.3298    0.0893 C   0  0  0  0  0  0  0  0  0  0  0  0
    2.1306   -4.2273    0.7670 C   0  0  0  0  0  0  0  0  0  0  0  0
    2.5721   -3.3398   -0.3949 C   0  0  0  0  0  0  0  0  0  0  0  0
   -2.9410    1.2928   -1.5356 C   0  0  0  0  0  0  0  0  0  0  0  0
   -2.3455    0.9855    0.7915 C   0  0  0  0  0  0  0  0  0  0  0  0
   -3.2441    2.6346   -1.2793 C   0  0  0  0  0  0  0  0  0  0  0  0
   -2.6410    2.3281    1.0453 C   0  0  0  0  0  0  0  0  0  0  0  0
    5.0719    0.9083   -0.7445 C   0  0  0  0  0  0  0  0  0  0  0  0
   -3.4353   -3.0406   -0.3661 C   0  0  0  0  0  0  0  0  0  0  0  0
    2.8297    2.4258    0.0972 C   0  0  0  0  0  0  0  0  0  0  0  0
    1.9184    0.4431    1.3835 C   0  0  0  0  0  0  0  0  0  0  0  0
    5.0982    4.3133   -2.0389 C   0  0  0  0  0  0  0  0  0  0  0  0
    2.9718    1.0822    0.5171 C   0  0  0  0  0  0  0  0  0  0  0  0
    2.2000   -2.7177    0.9419 C   0  0  0  0  0  0  0  0  0  0  0  0
   -2.4932    0.4500   -0.5028 C   0  0  0  0  0  0  0  0  0  0  0  0
   -3.0902    3.1677    0.0115 C   0  0  0  0  0  0  0  0  0  0  0  0
   -1.6572   -2.4461    1.0223 C   0  0  1  0  0  0  0  0  0  0  0  0
    4.8909    2.2332   -1.1301 C   0  0  0  0  0  0  0  0  0  0  0  0
    3.8170    2.9604   -0.7262 C   0  0  0  0  0  0  0  0  0  0  0  0
   -0.3560   -2.3733    0.1938 C   0  0  1  0  0  0  0  0  0  0  0  0
   -0.6209   -1.2990   -0.8613 C   0  0  1  0  0  0  0  0  0  0  0  0
    0.8812   -1.9032    1.0433 C   0  0  2  0  0  0  0  0  0  0  0  0
   -2.1376   -0.9997   -0.8042 C   0  0  1  0  0  0  0  0  0  0  0  0
   -3.3878    4.5984    0.2686 C   0  0  0  0  0  0  0  0  0  0  0  0
    0.2987   -0.2003   -0.4734 C   0  0  0  0  0  0  0  0  0  0  0  0
   -4.4721    5.2418   -0.4064 N   0  0  0  0  0  0  0  0  0  0  0  0
   -2.6578    5.2923    1.0839 N   0  0  0  0  0  0  0  0  0  0  0  0
   -2.7393   -1.8848    0.2129 N   0  0  0  0  0  0  0  0  0  0  0  0
    1.1368   -0.5312    0.6183 N   0  0  0  0  0  0  0  0  0  0  0  0
    0.3739    0.8971   -1.0882 O   0  0  0  0  0  0  0  0  0  0  0  0
    5.6986    3.0125   -1.9354 O   0  0  0  0  0  0  0  0  0  0  0  0
    3.8961    4.2340   -1.2573 O   0  0  0  0  0  0  0  0  0  0  0  0
  1  2  1  0
  1 11  1  0
 19  2  1  6
  3 10  2  0
  3 15  1  0
  4  5  1  0
  4 16  1  0
  5 16  1  0
  6  8  2  0
  6 17  1  0
  7  9  1  0
  7 17  2  0
  8 18  1  0
  9 18  2  0
 10 20  1  0
 11 30  1  0
 12 15  2  0
 12 21  1  0
 13 15  1  0
 13 31  1  0
 14 33  1  0
 14 34  1  0
 24 16  1  6
 25 17  1  1
 18 26  1  0
 19 22  1  0
 19 30  1  0
 20 21  2  0
 20 33  1  0
 21 34  1  0
 22 23  1  0
 22 24  1  1
 23 25  1  0
 23 27  1  1
 24 31  1  0
 25 30  1  0
 26 28  1  0
 26 29  2  3
 27 31  1  0
 27 32  2  0
M  END
$$$$
