3VOZ_04A_A_601_
     RDKit          3D

 18 19  0  0  0  0  0  0  0  0999 V2000
    1.5630  -10.0220   -0.4510 O   0  0  0  0  0  0  0  0  0  0  0  0
   -2.9230   -7.2310   -0.5400 C   0  0  0  0  0  0  0  0  0  0  0  0
   -2.8340   -8.6300   -0.1950 C   0  0  0  0  0  0  0  0  0  0  0  0
   -1.9750   -6.6350   -1.4720 C   0  0  0  0  0  0  0  0  0  0  0  0
   -1.8170   -9.4630   -0.7570 C   0  0  0  0  0  0  0  0  0  0  0  0
   -0.9070   -7.5160   -2.0620 C   0  0  0  0  0  0  0  0  0  0  0  0
    7.6520   -8.9740    0.5870 C   0  0  0  0  0  0  0  0  0  0  0  0
    7.3990  -10.4570    0.2070 C   0  0  0  0  0  0  0  0  0  0  0  0
    0.2190   -9.8940   -2.2540 C   0  0  0  0  0  0  0  0  0  0  0  0
    5.1090  -10.3020    0.5010 N   0  0  0  0  0  0  0  0  0  0  0  0
    3.9260  -10.2050    0.0090 N   0  0  0  0  0  0  0  0  0  0  0  0
    2.8150  -10.0730   -2.3510 N   0  0  0  0  0  0  0  0  0  0  0  0
    7.8500   -7.8500    0.0000 S   0  0  0  0  0  0  0  0  0  0  0  0
    5.4590  -10.2710   -1.9700 S   0  0  0  0  0  0  0  0  0  0  0  0
    1.6020  -10.0010   -1.6710 C   0  0  0  0  0  0  0  0  0  0  0  0
   -0.8330   -8.9020   -1.7090 C   0  0  0  0  0  0  0  0  0  0  0  0
    6.0760  -10.3500   -0.4670 C   0  0  0  0  0  0  0  0  0  0  0  0
    3.8450  -10.1680   -1.3920 C   0  0  0  0  0  0  0  0  0  0  0  0
  2  3  2  0
  2  4  1  0
  3  5  1  0
  4  6  2  0
  7  8  1  0
 10 11  1  0
  7 13  1  0
  1 15  2  0
  9 15  1  0
 12 15  1  0
  5 16  2  0
  6 16  1  0
  9 16  1  0
  8 17  1  0
 10 17  2  0
 14 17  1  0
 11 18  2  0
 12 18  1  0
 14 18  1  0
M  END
$$$$
