1KAK_FNP_A_301_
     RDKit          3D

 24 25  0  0  0  0  0  0  0  0999 V2000
   22.1379   31.9610   55.3498 C   0  0  0  0  0  0  0  0  0  0  0  0
   25.4357   29.2009   51.1368 C   0  0  0  0  0  0  0  0  0  0  0  0
   26.5685   29.1669   51.9354 C   0  0  0  0  0  0  0  0  0  0  0  0
   26.6160   29.7677   53.1793 C   0  0  0  0  0  0  0  0  0  0  0  0
   25.4901   30.4402   53.6778 C   0  0  0  0  0  0  0  0  0  0  0  0
   25.5178   31.0571   54.9386 C   0  0  0  0  0  0  0  0  0  0  0  0
   24.4075   31.7103   55.4126 C   0  0  0  0  0  0  0  0  0  0  0  0
   23.2573   31.7787   54.6874 C   0  0  0  0  0  0  0  0  0  0  0  0
   23.1903   31.1712   53.4072 C   0  0  0  0  0  0  0  0  0  0  0  0
   24.3116   30.4977   52.8963 C   0  0  0  0  0  0  0  0  0  0  0  0
   24.3010   29.8770   51.6323 C   0  0  0  0  0  0  0  0  0  0  0  0
   25.5672   28.9104   49.8521 C   0  0  0  0  0  0  0  0  0  0  0  0
   21.1315   32.6459   54.5288 F   0  0  0  0  0  0  0  0  0  0  0  0
   21.6509   30.8252   55.7605 F   0  0  0  0  0  0  0  0  0  0  0  0
   21.9536   33.2858   56.6547 P   0  0  0  0  0  0  0  0  0  0  0  0
   23.2640   33.8577   57.0203 O   0  0  0  0  0  0  0  0  0  0  0  0
   21.3286   32.7227   57.8853 O   0  0  0  0  0  0  0  0  0  0  0  0
   21.0880   34.4056   56.1829 O   0  0  0  0  0  0  0  0  0  0  0  0
   26.8644   29.3777   49.3062 F   0  0  0  0  0  0  0  0  0  0  0  0
   24.5977   29.4074   49.1323 F   0  0  0  0  0  0  0  0  0  0  0  0
   26.0457   27.2153   49.2833 P   0  0  0  0  0  0  0  0  0  0  0  0
   27.1383   26.6741   50.1326 O   0  0  0  0  0  0  0  0  0  0  0  0
   26.5306   27.2434   47.8809 O   0  0  0  0  0  0  0  0  0  0  0  0
   24.8846   26.2908   49.3465 O   0  0  0  0  0  0  0  0  0  0  0  0
  2  3  2  0
  3  4  1  0
  4  5  2  0
  5  6  1  0
  6  7  2  0
  1  8  1  0
  7  8  1  0
  8  9  2  0
  5 10  1  0
  9 10  1  0
  2 11  1  0
 10 11  2  0
  2 12  1  0
  1 13  1  0
  1 14  1  0
  1 15  1  0
 15 16  2  0
 15 17  1  0
 15 18  1  0
 12 19  1  0
 12 20  1  0
 12 21  1  0
 21 22  2  0
 21 23  1  0
 21 24  1  0
M  END
$$$$
