
     RDKit          3D

 22 23  0  0  0  0  0  0  0  0999 V2000
    6.3238   -1.6435    0.8268 C   0  0  0  0  0  0  0  0  0  0  0  0
    5.2719   -1.0954    1.7902 C   0  0  0  0  0  0  0  0  0  0  0  0
    4.7792    0.3123    1.4093 C   0  0  0  0  0  0  0  0  0  0  0  0
    4.1053    0.4162    0.0287 C   0  0  0  0  0  0  0  0  0  0  0  0
    2.8008   -0.3932   -0.0624 C   0  0  0  0  0  0  0  0  0  0  0  0
    2.1166   -0.2722   -1.4362 C   0  0  0  0  0  0  0  0  0  0  0  0
    1.6301    1.1440   -1.8040 C   0  0  0  0  0  0  0  0  0  0  0  0
    0.6638    1.7655   -0.7826 C   0  0  0  0  0  0  0  0  0  0  0  0
   -4.1947   -1.7912   -0.6444 C   0  0  0  0  0  0  0  0  0  0  0  0
   -3.8343   -0.4135   -1.1876 C   0  0  1  0  0  0  0  0  0  0  0  0
   -4.6674    0.7067   -0.4985 C   0  0  2  0  0  0  0  0  0  0  0  0
   -4.5825    0.6053    1.0590 C   0  0  1  0  0  0  0  0  0  0  0  0
   -3.1618    0.1872    1.5487 C   0  0  2  0  0  0  0  0  0  0  0  0
   -2.5429   -0.8774    0.6062 C   0  0  2  0  0  0  0  0  0  0  0  0
   -1.5032    0.6521   -1.1768 C   0  0  0  0  0  0  0  0  0  0  0  0
   -0.4372    0.8585   -0.4582 N   0  0  0  0  0  0  0  0  0  0  0  0
   -2.4832   -0.2958   -0.7193 N   0  0  0  0  0  0  0  0  0  0  0  0
   -6.0101    0.6334   -0.9021 O   0  0  0  0  0  0  0  0  0  0  0  0
   -4.9276    1.8350    1.6420 O   0  0  0  0  0  0  0  0  0  0  0  0
   -3.1958   -0.2694    2.8778 O   0  0  0  0  0  0  0  0  0  0  0  0
   -3.4098   -1.9957    0.5194 O   0  0  0  0  0  0  0  0  0  0  0  0
   -1.7704    1.5239   -2.7315 S   0  0  0  0  0  0  0  0  0  0  0  0
  1  2  1  0
  2  3  1  0
  3  4  1  0
  4  5  1  0
  5  6  1  0
  6  7  1  0
  7  8  1  0
  8 16  1  0
 10  9  1  1
  9 21  1  0
 10 11  1  0
 10 17  1  0
 11 12  1  0
 11 18  1  1
 12 13  1  0
 12 19  1  1
 13 14  1  0
 13 20  1  1
 14 17  1  0
 14 21  1  6
 15 16  2  3
 15 17  1  0
 15 22  1  0
M  END
$$$$
