1Y2D_4DE_B_602_
     RDKit          3D

 20 21  0  0  0  0  0  0  0  0999 V2000
    4.5090   35.1180   59.6440 O   0  0  0  0  0  0  0  0  0  0  0  0
    5.3230   35.8740   59.1360 C   0  0  0  0  0  0  0  0  0  0  0  0
    6.2250   36.6360   59.8530 O   0  0  0  0  0  0  0  0  0  0  0  0
    6.3370   36.3860   61.2790 C   0  0  0  0  0  0  0  0  0  0  0  0
    7.0880   37.4960   61.9880 C   0  0  0  0  0  0  0  0  0  0  0  0
    5.4280   36.0250   57.6820 C   0  0  0  0  0  0  0  0  0  0  0  0
    6.1540   36.9830   56.9130 C   0  0  0  0  0  0  0  0  0  0  0  0
    7.0160   38.1190   57.3410 C   0  0  0  0  0  0  0  0  0  0  0  0
    5.9720   36.7440   55.6150 N   0  0  0  0  0  0  0  0  0  0  0  0
    5.1530   35.6680   55.4600 N   0  0  0  0  0  0  0  0  0  0  0  0
    4.8010   35.1940   56.7290 C   0  0  0  0  0  0  0  0  0  0  0  0
    3.9120   34.0210   56.9690 C   0  0  0  0  0  0  0  0  0  0  0  0
    4.8350   35.2150   54.1260 C   0  0  0  0  0  0  0  0  0  0  0  0
    5.4880   34.0520   53.6540 C   0  0  0  0  0  0  0  0  0  0  0  0
    5.2510   33.5470   52.3660 C   0  0  0  0  0  0  0  0  0  0  0  0
    4.3460   34.1960   51.5070 C   0  0  0  0  0  0  0  0  0  0  0  0
    3.7030   35.3520   51.9680 C   0  0  0  0  0  0  0  0  0  0  0  0
    3.9390   35.8610   53.2610 C   0  0  0  0  0  0  0  0  0  0  0  0
    4.0020   33.8290   50.2040 O   0  0  0  0  0  0  0  0  0  0  0  0
    3.9430   32.4400   49.8390 C   0  0  0  0  0  0  0  0  0  0  0  0
  1  2  2  0
  2  3  1  0
  3  4  1  0
  4  5  1  0
  2  6  1  0
  6  7  1  0
  7  8  1  0
  7  9  2  0
  9 10  1  0
  6 11  2  0
 10 11  1  0
 11 12  1  0
 10 13  1  0
 13 14  2  0
 14 15  1  0
 15 16  2  0
 16 17  1  0
 13 18  1  0
 17 18  2  0
 16 19  1  0
 19 20  1  0
M  END
$$$$
