
     RDKit          3D

 12 12  0  0  0  0  0  0  0  0999 V2000
    3.3769   -0.4647   -0.6056 C   0  0  0  0  0  0  0  0  0  0  0  0
   -1.3516   -2.1192   -0.4784 C   0  0  0  0  0  0  0  0  0  0  0  0
   -1.4767    2.8600    0.5204 C   0  0  0  0  0  0  0  0  0  0  0  0
    2.5964   -0.9828    0.5967 C   0  0  0  0  0  0  0  0  0  0  0  0
   -1.7597   -0.6941   -0.2734 C   0  0  0  0  0  0  0  0  0  0  0  0
   -1.8173    1.4508    0.1555 C   0  0  0  0  0  0  0  0  0  0  0  0
   -0.9539    0.3616    0.1251 C   0  0  0  0  0  0  0  0  0  0  0  0
    0.4889    0.3328    0.4400 C   0  0  0  0  0  0  0  0  0  0  0  0
   -3.0121   -0.2379   -0.4600 N   0  0  0  0  0  0  0  0  0  0  0  0
   -3.0563    1.0591   -0.2030 N   0  0  0  0  0  0  0  0  0  0  0  0
    1.0818    1.3933    0.7777 O   0  0  0  0  0  0  0  0  0  0  0  0
    1.1928   -0.8747    0.3692 O   0  0  0  0  0  0  0  0  0  0  0  0
  1  4  1  0
  2  5  1  0
  3  6  1  0
  4 12  1  0
  5  7  2  0
  5  9  1  0
  6  7  1  0
  6 10  2  0
  7  8  1  0
  8 11  2  0
  8 12  1  0
  9 10  1  0
M  END
$$$$
