
     RDKit          3D

 12 12  0  0  0  0  0  0  0  0999 V2000
    3.8552    0.3435   -0.5063 C   0  0  0  0  0  0  0  0  0  0  0  0
    0.9225    0.7228   -0.6794 C   0  0  0  0  0  0  0  0  0  0  0  0
    0.6819   -1.4913    0.2723 C   0  0  0  0  0  0  0  0  0  0  0  0
   -0.4690    0.8467   -0.7386 C   0  0  0  0  0  0  0  0  0  0  0  0
   -0.7091   -1.3664    0.2127 C   0  0  0  0  0  0  0  0  0  0  0  0
    1.5092   -0.4530   -0.1722 C   0  0  0  0  0  0  0  0  0  0  0  0
   -1.2905   -0.1994   -0.2992 C   0  0  0  0  0  0  0  0  0  0  0  0
   -3.6105    0.6652    1.1163 N   0  0  0  0  0  0  0  0  0  0  0  0
   -3.4324    0.8450   -1.5133 O   0  0  0  0  0  0  0  0  0  0  0  0
   -3.6749   -1.3851   -0.5482 O   0  0  0  0  0  0  0  0  0  0  0  0
    2.8989   -0.6267   -0.0921 O   0  0  0  0  0  0  0  0  0  0  0  0
   -3.0428   -0.0347   -0.3585 S   0  0  0  0  0  6  0  0  0  0  0  0
  1 11  1  0
  2  4  2  0
  2  6  1  0
  3  5  1  0
  3  6  2  0
  4  7  1  0
  5  7  2  0
  6 11  1  0
  7 12  1  0
  8 12  1  0
  9 12  2  0
 10 12  2  0
M  END
$$$$
