2WVT_FHN_B_1474_
     RDKit          3D

 13 13  0  0  0  0  0  0  0  0999 V2000
  -27.0965    0.7422   29.5573 O   0  0  0  0  0  0  0  0  0  0  0  0
  -26.4633    1.8907   29.0548 C   0  0  0  0  0  0  0  0  0  0  0  0
  -25.0531    1.5586   28.5607 C   0  0  0  0  0  0  0  0  0  0  0  0
  -24.3103    0.9377   29.6405 O   0  0  0  0  0  0  0  0  0  0  0  0
  -24.3870    2.8101   28.0706 C   0  0  0  0  0  0  0  0  0  0  0  0
  -24.2584    3.7585   29.1426 O   0  0  0  0  0  0  0  0  0  0  0  0
  -25.2143    3.4406   26.9422 C   0  0  0  0  0  0  0  0  0  0  0  0
  -24.5837    4.7544   26.4423 C   0  0  0  0  0  0  0  0  0  0  0  0
  -25.4423    5.1851   25.3900 O   0  0  0  0  0  0  0  0  0  0  0  0
  -26.5751    3.7108   27.3764 N   0  0  0  0  0  0  0  0  0  0  0  0
  -27.3001    2.5295   27.9234 C   0  0  0  0  0  0  0  0  0  0  0  0
  -27.7613    1.5676   26.8130 C   0  0  0  0  0  0  0  0  0  0  0  0
  -28.5918    2.3469   25.9191 O   0  0  0  0  0  0  0  0  0  0  0  0
  1  2  1  0
  2  3  1  0
  3  4  1  0
  3  5  1  0
  5  6  1  0
  5  7  1  0
  7  8  1  0
  8  9  1  0
  7 10  1  0
  2 11  1  0
 10 11  1  0
 11 12  1  0
 12 13  1  0
M  CHG  1  10   1
M  END
$$$$
