
     RDKit          3D

 13 13  0  0  0  0  0  0  0  0999 V2000
   -2.4176    1.1136   -0.0447 C   0  0  0  0  0  0  0  0  0  0  0  0
    2.1179    1.3337    0.5315 C   0  0  0  0  0  0  0  0  0  0  0  0
   -1.0819    0.3591    0.1313 C   0  0  1  0  0  0  0  0  0  0  0  0
    1.3331    0.3967   -0.4165 C   0  0  1  0  0  0  0  0  0  0  0  0
   -1.2407   -1.1678   -0.1393 C   0  0  2  0  0  0  0  0  0  0  0  0
    1.3084   -1.0700    0.1178 C   0  0  2  0  0  0  0  0  0  0  0  0
    0.1185   -1.8294   -0.4990 C   0  0  0  0  0  0  0  0  0  0  0  0
   -0.0230    0.9336   -0.7250 N   0  0  0  0  0  4  0  0  0  0  0  0
   -2.3307    2.4028    0.5038 O   0  0  0  0  0  0  0  0  0  0  0  0
    2.3782    2.5654   -0.0871 O   0  0  0  0  0  0  0  0  0  0  0  0
   -2.1512   -1.3917   -1.1874 O   0  0  0  0  0  0  0  0  0  0  0  0
    1.2148   -1.0889    1.5234 O   0  0  0  0  0  0  0  0  0  0  0  0
    0.1381   -3.1901   -0.1430 O   0  0  0  0  0  0  0  0  0  0  0  0
  3  1  1  6
  1  9  1  0
  4  2  1  1
  2 10  1  0
  3  5  1  0
  3  8  1  0
  4  6  1  0
  4  8  1  0
  5  7  1  0
  5 11  1  6
  6  7  1  0
  6 12  1  1
  7 13  1  0
M  CHG  1   8   1
M  END
$$$$
