4FCR_0TM_A_301_
     RDKit          3D

 29 31  0  0  0  0  0  0  0  0999 V2000
   33.7080    6.8120   23.3140 C   0  0  0  0  0  0  0  0  0  0  0  0
   34.5290    8.0390   23.4290 O   0  0  0  0  0  0  0  0  0  0  0  0
   33.9090    9.2400   23.6870 C   0  0  0  0  0  0  0  0  0  0  0  0
   32.5500    9.3130   24.1570 C   0  0  0  0  0  0  0  0  0  0  0  0
   34.6450   10.3860   23.5940 C   0  0  0  0  0  0  0  0  0  0  0  0
   35.9770   10.2050   23.1870 O   0  0  0  0  0  0  0  0  0  0  0  0
   36.8800   11.3040   23.5660 C   0  0  0  0  0  0  0  0  0  0  0  0
   34.0560   11.6540   23.8290 C   0  0  0  0  0  0  0  0  0  0  0  0
   32.7260   11.7650   24.2920 C   0  0  0  0  0  0  0  0  0  0  0  0
   32.0790   13.3370   24.5680 Cl  0  0  0  0  0  0  0  0  0  0  0  0
   31.9540   10.5820   24.3950 C   0  0  0  0  0  0  0  0  0  0  0  0
   30.6010   10.6430   24.8550 C   0  0  0  0  0  0  0  0  0  0  0  0
   30.3680   10.0530   26.0640 N   0  0  0  0  0  0  0  0  0  0  0  0
   29.4930   11.2190   24.1580 C   0  0  0  0  0  0  0  0  0  0  0  0
   29.2700   11.8060   22.9640 C   0  0  0  0  0  0  0  0  0  0  0  0
   30.2750   12.1150   21.9420 C   0  0  0  0  0  0  0  0  0  0  0  0
   31.0660   12.3440   21.1290 N   0  0  0  0  0  0  0  0  0  0  0  0
   27.9580   12.1200   22.8970 C   0  0  0  0  0  0  0  0  0  0  0  0
   27.2600   11.7010   23.9620 N   0  0  0  0  0  0  0  0  0  0  0  0
   28.2070   11.1480   24.7550 C   0  0  0  0  0  0  0  0  0  0  0  0
   28.0580   10.5280   25.8990 N   0  0  0  0  0  0  0  0  0  0  0  0
   29.1330   10.0330   26.6150 C   0  0  0  0  0  0  0  0  0  0  0  0
   28.6680    9.3340   28.1170 S   0  0  0  0  0  0  0  0  0  0  0  0
   30.1300    8.3530   28.6000 C   0  0  0  0  0  0  0  0  0  0  0  0
   30.4430    7.1670   27.6730 C   0  0  0  0  0  0  0  0  0  0  0  0
   29.6090    6.8190   26.8410 O   0  0  0  0  0  0  0  0  0  0  0  0
   31.6430    6.5510   27.8330 N   0  0  0  0  0  0  0  0  0  0  0  0
   32.6120    6.9750   28.8670 C   0  0  0  0  0  0  0  0  0  0  0  0
   31.9860    5.4220   26.9630 C   0  0  0  0  0  0  0  0  0  0  0  0
  1  2  1  0
  2  3  1  0
  3  4  2  0
  3  5  1  0
  5  6  1  0
  6  7  1  0
  5  8  2  0
  8  9  1  0
  9 10  1  0
  4 11  1  0
  9 11  2  0
 11 12  1  0
 12 13  2  0
 12 14  1  0
 14 15  1  0
 15 16  1  0
 16 17  3  0
 15 18  2  0
 18 19  1  0
 19 20  1  0
 14 20  2  0
 20 21  1  0
 21 22  2  0
 13 22  1  0
 22 23  1  0
 23 24  1  0
 24 25  1  0
 25 26  2  0
 25 27  1  0
 27 28  1  0
 27 29  1  0
M  END
$$$$
