4FCQ_2N6_A_301_
     RDKit          3D

 21 23  0  0  0  0  0  0  0  0999 V2000
   31.6479   13.6221   24.5006 C   0  0  0  0  0  0  0  0  0  0  0  0
   32.3371   12.2331   24.3773 C   0  0  0  0  0  0  0  0  0  0  0  0
   33.6970   12.2613   24.0967 C   0  0  0  0  0  0  0  0  0  0  0  0
   34.4321   11.0858   23.9538 C   0  0  0  0  0  0  0  0  0  0  0  0
   35.9383   11.1370   23.5993 C   0  0  0  0  0  0  0  0  0  0  0  0
   33.8020    9.8648   24.1098 C   0  0  0  0  0  0  0  0  0  0  0  0
   32.4720    9.8121   24.4288 C   0  0  0  0  0  0  0  0  0  0  0  0
   31.7136   10.9807   24.5313 C   0  0  0  0  0  0  0  0  0  0  0  0
   30.3844   10.8258   24.9301 C   0  0  0  0  0  0  0  0  0  0  0  0
   29.2518   11.2017   24.2199 C   0  0  0  0  0  0  0  0  0  0  0  0
   30.1874   10.3114   26.1678 N   0  0  0  0  0  0  0  0  0  0  0  0
   28.9382   10.1525   26.7179 C   0  0  0  0  0  0  0  0  0  0  0  0
   28.7115    9.4010   28.3015 S   0  0  0  0  0  0  0  0  0  0  0  0
   29.7707    7.9271   28.2318 C   0  0  0  0  0  0  0  0  0  0  0  0
   27.8562   10.5187   26.0422 N   0  0  0  0  0  0  0  0  0  0  0  0
   27.9992   11.0096   24.7988 C   0  0  0  0  0  0  0  0  0  0  0  0
   27.1059   11.4280   23.9384 N   0  0  0  0  0  0  0  0  0  0  0  0
   27.7120   11.8817   22.8357 C   0  0  0  0  0  0  0  0  0  0  0  0
   29.0251   11.7716   22.9710 C   0  0  0  0  0  0  0  0  0  0  0  0
   30.0658   12.1334   22.0439 C   0  0  0  0  0  0  0  0  0  0  0  0
   30.9166   12.3750   21.3375 N   0  0  0  0  0  0  0  0  0  0  0  0
  1  2  1  0
  2  3  2  0
  3  4  1  0
  4  5  1  0
  4  6  2  0
  6  7  1  0
  7  8  2  0
  2  8  1  0
  8  9  1  0
  9 10  1  0
  9 11  2  0
 11 12  1  0
 12 13  1  0
 13 14  1  0
 12 15  2  0
 10 16  2  0
 15 16  1  0
 16 17  1  0
 17 18  1  0
 18 19  2  0
 10 19  1  0
 19 20  1  0
 20 21  3  0
M  END
$$$$
