
     RDKit          3D

 21 23  0  0  0  0  0  0  0  0999 V2000
   -4.6657   -1.8894   -0.5628 C   0  0  0  0  0  0  0  0  0  0  0  0
   -0.5603   -0.7488    2.1091 C   0  0  0  0  0  0  0  0  0  0  0  0
    4.2119   -1.0885    2.2802 C   0  0  0  0  0  0  0  0  0  0  0  0
   -2.5978   -1.0042   -1.6881 C   0  0  0  0  0  0  0  0  0  0  0  0
   -1.2853   -0.5326   -1.6411 C   0  0  0  0  0  0  0  0  0  0  0  0
   -2.5736   -1.3151    0.7132 C   0  0  0  0  0  0  0  0  0  0  0  0
   -0.9774    2.6208   -1.2712 C   0  0  0  0  0  0  0  0  0  0  0  0
    1.3966    3.4545   -1.3821 C   0  0  0  0  0  0  0  0  0  0  0  0
   -3.2436   -1.4139   -0.5148 C   0  0  0  0  0  0  0  0  0  0  0  0
   -1.2562   -0.8289    0.7755 C   0  0  0  0  0  0  0  0  0  0  0  0
    0.4488    2.4573   -1.1779 C   0  0  0  0  0  0  0  0  0  0  0  0
   -0.6049   -0.4381   -0.4175 C   0  0  0  0  0  0  0  0  0  0  0  0
    1.1553    1.3310   -0.7934 C   0  0  0  0  0  0  0  0  0  0  0  0
    0.7922    0.0359   -0.4105 C   0  0  0  0  0  0  0  0  0  0  0  0
    2.4712    1.6968   -0.7749 C   0  0  0  0  0  0  0  0  0  0  0  0
    3.1026   -0.4171   -0.0046 C   0  0  0  0  0  0  0  0  0  0  0  0
   -2.1246    2.7532   -1.3454 N   0  0  0  0  0  0  0  0  0  0  0  0
    2.6389    2.9796   -1.1346 N   0  0  0  0  0  0  0  0  0  0  0  0
    1.7913   -0.8102   -0.0217 N   0  0  0  0  0  0  0  0  0  0  0  0
    3.4509    0.8474   -0.3839 N   0  0  0  0  0  0  0  0  0  0  0  0
    4.3649   -1.5647    0.5310 S   0  0  0  0  0  0  0  0  0  0  0  0
  1  9  1  0
  2 10  1  0
  3 21  1  0
  4  5  2  0
  4  9  1  0
  5 12  1  0
  6  9  2  0
  6 10  1  0
  7 11  1  0
  7 17  3  0
  8 11  2  0
  8 18  1  0
 10 12  2  0
 11 13  1  0
 12 14  1  0
 13 14  2  0
 13 15  1  0
 14 19  1  0
 15 18  1  0
 15 20  2  0
 16 19  2  0
 16 20  1  0
 16 21  1  0
M  END
$$$$
