2PJ0_922_A_401_
     RDKit          3D

 33 34  0  0  0  0  0  0  0  0999 V2000
   16.4075   26.1763   96.6039 C   0  0  0  0  0  0  0  0  0  0  0  0
   15.2153   25.7403   97.2481 C   0  0  0  0  0  0  0  0  0  0  0  0
   15.2767   24.7742   98.2855 C   0  0  0  0  0  0  0  0  0  0  0  0
   16.5292   24.2393   98.6822 C   0  0  0  0  0  0  0  0  0  0  0  0
   17.7188   24.6720   98.0406 C   0  0  0  0  0  0  0  0  0  0  0  0
   17.6639   25.6463   97.0003 C   0  0  0  0  0  0  0  0  0  0  0  0
   18.8552   26.1128   96.4100 C   0  0  0  0  0  0  0  0  0  0  0  0
   20.0534   26.0831   97.2187 O   0  0  0  0  0  0  0  0  0  0  0  0
   21.2596   25.9366   96.5806 C   0  0  0  0  0  0  0  0  0  0  0  0
   21.3715   26.0695   95.3476 O   0  0  0  0  0  0  0  0  0  0  0  0
   22.2981   25.7492   97.3961 N   0  0  0  0  0  0  0  0  0  0  0  0
   23.6746   25.5518   96.9277 C   0  0  0  0  0  0  0  0  0  0  0  0
   24.6374   26.4828   97.6999 C   0  0  0  0  0  0  0  0  0  0  0  0
   24.3959   27.9407   97.2757 C   0  0  0  0  0  0  0  0  0  0  0  0
   24.5072   26.3448   99.2209 C   0  0  0  0  0  0  0  0  0  0  0  0
   24.1017   23.7685   97.0220 P   0  0  0  0  0  0  0  0  0  0  0  0
   25.5349   23.5978   96.7046 O   0  0  0  0  0  0  0  0  0  0  0  0
   23.1130   23.0801   96.1655 O   0  0  0  0  0  0  0  0  0  0  0  0
   23.8529   23.3191   98.5394 O   0  0  0  0  0  0  0  0  0  0  0  0
   23.8844   21.9119   98.8152 C   0  0  0  0  0  0  0  0  0  0  0  0
   22.5289   21.2725   98.4830 C   0  0  0  0  0  0  0  0  0  0  0  0
   22.5651   20.1518   97.9288 O   0  0  0  0  0  0  0  0  0  0  0  0
   21.4991   21.9288   98.7566 O   0  0  0  0  0  0  0  0  0  0  0  0
   24.3085   21.6064  100.2732 C   0  0  0  0  0  0  0  0  0  0  0  0
   24.1478   20.2975  100.7677 C   0  0  0  0  0  0  0  0  0  0  0  0
   24.9029   22.5995  101.1049 C   0  0  0  0  0  0  0  0  0  0  0  0
   25.3249   22.2591  102.4169 C   0  0  0  0  0  0  0  0  0  0  0  0
   25.1534   20.9337  102.9027 C   0  0  0  0  0  0  0  0  0  0  0  0
   24.5609   19.9479  102.0747 C   0  0  0  0  0  0  0  0  0  0  0  0
   24.3985   18.6770  102.5231 N   0  0  0  0  0  0  0  0  0  0  0  0
   23.2234   17.9967  102.4329 C   0  0  0  0  0  0  0  0  0  0  0  0
   22.0587   18.6346  102.2366 N   0  0  0  0  0  0  0  0  0  0  0  0
   23.2168   16.6711  102.5712 N   0  0  0  0  0  0  0  0  0  0  0  0
  1  2  2  0
  2  3  1  0
  3  4  2  0
  4  5  1  0
  1  6  1  0
  5  6  2  0
  6  7  1  0
  7  8  1  0
  8  9  1  0
  9 10  2  0
  9 11  1  0
 11 12  1  0
 12 13  1  0
 13 14  1  0
 13 15  1  0
 12 16  1  0
 16 17  2  0
 16 18  1  0
 16 19  1  0
 19 20  1  0
 20 21  1  0
 21 22  2  0
 21 23  1  0
 20 24  1  0
 24 25  2  0
 24 26  1  0
 26 27  2  0
 27 28  1  0
 25 29  1  0
 28 29  2  0
 29 30  1  0
 30 31  1  0
 31 32  2  0
 31 33  1  0
M  END
$$$$
