2XP8_4FY_A_1165_
     RDKit          3D

 22 24  0  0  0  0  0  0  0  0999 V2000
  -33.1440   24.9960   23.1160 C   0  0  0  0  0  0  0  0  0  0  0  0
  -31.9500   24.2850   23.0090 C   0  0  0  0  0  0  0  0  0  0  0  0
  -33.6230   29.4830   27.0160 C   0  0  0  0  0  0  0  0  0  0  0  0
  -31.3410   23.8650   24.1770 C   0  0  0  0  0  0  0  0  0  0  0  0
  -31.9190   24.1530   25.4230 C   0  0  0  0  0  0  0  0  0  0  0  0
  -33.1210   24.8430   25.5330 C   0  0  0  0  0  0  0  0  0  0  0  0
  -33.7420   25.2360   24.3620 C   0  0  0  0  0  0  0  0  0  0  0  0
  -34.9020   25.9880   24.3820 C   0  0  0  0  0  0  0  0  0  0  0  0
  -35.1350   26.8230   25.3730 N   0  0  0  0  0  0  0  0  0  0  0  0
  -35.8550   26.1000   23.4250 N   0  0  0  0  0  0  0  0  0  0  0  0
  -36.7160   27.0090   23.8630 C   0  0  0  0  0  0  0  0  0  0  0  0
  -37.9460   27.4710   23.0900 C   0  0  0  0  0  0  0  0  0  0  0  0
  -37.9820   27.2570   21.8750 O   0  0  0  0  0  0  0  0  0  0  0  0
  -38.8350   28.1450   23.6230 O   0  0  0  0  0  0  0  0  0  0  0  0
  -36.2630   27.4620   25.0970 C   0  0  0  0  0  0  0  0  0  0  0  0
  -36.8310   28.5090   26.0890 C   0  0  0  0  0  0  0  0  0  0  0  0
  -37.9410   28.3750   26.6220 O   0  0  0  0  0  0  0  0  0  0  0  0
  -36.0260   29.5510   26.4140 N   0  0  0  0  0  0  0  0  0  0  0  0
  -34.6370   29.6870   25.8620 C   0  0  0  0  0  0  0  0  0  0  0  0
  -36.3960   30.5150   27.4700 C   0  0  0  0  0  0  0  0  0  0  0  0
  -35.3690   30.2900   28.6160 C   0  0  0  0  0  0  0  0  0  0  0  0
  -34.3680   29.2220   28.2780 O   0  0  0  0  0  0  0  0  0  0  0  0
  1  2  2  0
  2  4  1  0
  4  5  2  0
  5  6  1  0
  1  7  1  0
  6  7  2  0
  7  8  1  0
  8  9  2  0
  8 10  1  0
 10 11  1  0
 11 12  1  0
 12 13  2  0
 12 14  1  0
  9 15  1  0
 11 15  2  0
 15 16  1  0
 16 17  2  0
 16 18  1  0
  3 19  1  0
 18 19  1  0
 18 20  1  0
 20 21  1  0
  3 22  1  0
 21 22  1  0
M  END
$$$$
