3IBL_O59_A_300_
     RDKit          3D

 18 17  0  0  0  0  0  0  0  0999 V2000
   -4.7490    1.8574   14.6464 C   0  0  0  0  0  0  0  0  0  0  0  0
   -5.3545   -0.5386   16.2595 N   0  0  0  0  0  0  0  0  0  0  0  0
   -7.1712    1.0872   16.4419 O   0  0  0  0  0  0  0  0  0  0  0  0
   -5.8147    0.8558   16.8136 S   0  0  0  0  0  0  0  0  0  0  0  0
   -4.0753    3.1149   14.1819 C   0  0  0  0  0  0  0  0  0  0  0  0
   -0.8944   11.6324   12.0920 N   0  0  0  0  0  0  0  0  0  0  0  0
   -5.4284    0.9479   18.1899 O   0  0  0  0  0  0  0  0  0  0  0  0
   -1.5802   11.7088   13.5070 S   0  0  0  0  0  0  0  0  0  0  0  0
   -4.9584    4.3346   14.2123 C   0  0  0  0  0  0  0  0  0  0  0  0
   -4.9965    1.9961   16.1004 O   0  0  0  0  0  0  0  0  0  0  0  0
   -4.3369    5.5600   13.5907 C   0  0  0  0  0  0  0  0  0  0  0  0
   -1.9365   10.2502   13.9951 O   0  0  0  0  0  0  0  0  0  0  0  0
   -3.1954    6.1460   14.3772 C   0  0  0  0  0  0  0  0  0  0  0  0
   -0.6259   12.1954   14.4560 O   0  0  0  0  0  0  0  0  0  0  0  0
   -2.3977    7.1706   13.6283 C   0  0  0  0  0  0  0  0  0  0  0  0
   -2.8452   12.3557   13.3594 O   0  0  0  0  0  0  0  0  0  0  0  0
   -1.4595    7.9548   14.5040 C   0  0  0  0  0  0  0  0  0  0  0  0
   -0.9100    9.1936   13.8565 C   0  0  0  0  0  0  0  0  0  0  0  0
  2  4  1  0
  3  4  2  0
  1  5  1  0
  4  7  2  0
  6  8  1  0
  5  9  1  0
  1 10  1  0
  4 10  1  0
  9 11  1  0
  8 12  1  0
 11 13  1  0
  8 14  2  0
 13 15  1  0
  8 16  2  0
 15 17  1  0
 12 18  1  0
 17 18  1  0
M  END
$$$$
