
     RDKit          3D

 18 17  0  0  0  0  0  0  0  0999 V2000
    0.3886    1.0796    0.4691 C   0  0  0  0  0  0  0  0  0  0  0  0
    0.9021    0.5406   -0.8817 C   0  0  0  0  0  0  0  0  0  0  0  0
   -0.9347    0.4622    0.9552 C   0  0  0  0  0  0  0  0  0  0  0  0
    1.0962   -0.9869   -0.9472 C   0  0  0  0  0  0  0  0  0  0  0  0
   -2.1062    0.7341   -0.0003 C   0  0  0  0  0  0  0  0  0  0  0  0
    2.0632   -1.5696    0.1012 C   0  0  0  0  0  0  0  0  0  0  0  0
   -3.4269    0.2445    0.5923 C   0  0  0  0  0  0  0  0  0  0  0  0
    3.5117   -1.0990   -0.0738 C   0  0  0  0  0  0  0  0  0  0  0  0
   -7.1985    0.2620   -0.7796 N   0  0  0  0  0  0  0  0  0  0  0  0
    6.4433   -0.2514    0.6267 N   0  0  0  0  0  0  0  0  0  0  0  0
   -6.2139    0.6665    1.6278 O   0  0  0  0  0  0  0  0  0  0  0  0
   -5.8499   -1.5334    0.5939 O   0  0  0  0  0  0  0  0  0  0  0  0
    5.3628    2.1455    0.6666 O   0  0  0  0  0  0  0  0  0  0  0  0
    5.3019    0.9299   -1.4518 O   0  0  0  0  0  0  0  0  0  0  0  0
   -4.4631    0.5006   -0.3248 O   0  0  0  0  0  0  0  0  0  0  0  0
    3.6605    0.1947    0.4604 O   0  0  0  0  0  0  0  0  0  0  0  0
   -5.9208   -0.0529    0.3403 S   0  0  0  0  0  6  0  0  0  0  0  0
    5.1911    0.7905    0.0414 S   0  0  0  0  0  6  0  0  0  0  0  0
  1  2  1  0
  1  3  1  0
  2  4  1  0
  3  5  1  0
  4  6  1  0
  5  7  1  0
  6  8  1  0
  7 15  1  0
  8 16  1  0
  9 17  1  0
 10 18  1  0
 11 17  2  0
 12 17  2  0
 13 18  2  0
 14 18  2  0
 15 17  1  0
 16 18  1  0
M  END
$$$$
