2R3G_SC9_A_501_
     RDKit          3D

 24 27  0  0  0  0  0  0  0  0999 V2000
    4.7510   27.2600    5.3530 C   0  0  0  0  0  0  0  0  0  0  0  0
    3.7760   27.4230    6.3150 N   0  0  0  0  0  0  0  0  0  0  0  0
    3.9450   26.4550    7.2380 C   0  0  0  0  0  0  0  0  0  0  0  0
    4.9810   25.6520    6.9200 N   0  0  0  0  0  0  0  0  0  0  0  0
    5.4770   26.1650    5.7680 C   0  0  0  0  0  0  0  0  0  0  0  0
    2.7330   28.2840    6.3950 C   0  0  0  0  0  0  0  0  0  0  0  0
    1.8740   28.2380    7.4880 C   0  0  0  0  0  0  0  0  0  0  0  0
    2.0480   27.2650    8.4510 N   0  0  0  0  0  0  0  0  0  0  0  0
    3.0300   26.3890    8.3660 C   0  0  0  0  0  0  0  0  0  0  0  0
    3.2530   25.4020    9.2840 N   0  0  0  0  0  0  0  0  0  0  0  0
    2.4150   25.4500   10.4870 C   0  0  0  0  0  0  0  0  0  0  0  0
    1.2100   24.5860   10.2840 C   0  0  0  0  0  0  0  0  0  0  0  0
    1.3300   23.1920   10.1360 C   0  0  0  0  0  0  0  0  0  0  0  0
    0.1680   22.4290    9.9360 C   0  0  0  0  0  0  0  0  0  0  0  0
   -1.0640   23.0910    9.8770 C   0  0  0  0  0  0  0  0  0  0  0  0
   -1.2010   24.4290   10.0340 N   0  0  0  0  0  0  0  0  0  0  0  0
   -0.0800   25.1360   10.2260 C   0  0  0  0  0  0  0  0  0  0  0  0
    0.7830   29.2310    7.7520 C   0  0  0  0  0  0  0  0  0  0  0  0
    0.6870   30.5270    7.1360 C   0  0  0  0  0  0  0  0  0  0  0  0
   -0.3160   31.4220    7.5130 C   0  0  0  0  0  0  0  0  0  0  0  0
   -1.2280   31.0940    8.5240 C   0  0  0  0  0  0  0  0  0  0  0  0
   -1.1560   29.8350    9.1290 C   0  0  0  0  0  0  0  0  0  0  0  0
   -0.1470   28.9270    8.7600 C   0  0  0  0  0  0  0  0  0  0  0  0
    1.5020   30.9250    6.1820 F   0  0  0  0  0  0  0  0  0  0  0  0
  1  2  1  0
  2  3  1  0
  3  4  2  0
  1  5  2  0
  4  5  1  0
  2  6  1  0
  6  7  2  0
  7  8  1  0
  3  9  1  0
  8  9  2  0
  9 10  1  0
 10 11  1  0
 11 12  1  0
 12 13  2  0
 13 14  1  0
 14 15  2  0
 15 16  1  0
 16 17  2  0
 12 17  1  0
  7 18  1  0
 18 19  2  0
 19 20  1  0
 20 21  2  0
 21 22  1  0
 18 23  1  0
 22 23  2  0
 19 24  1  0
M  END
$$$$
