
     RDKit          3D

  9  9  0  0  0  0  0  0  0  0999 V2000
    2.1128    0.0570    0.5300 C   0  0  0  0  0  0  0  0  0  0  0  0
    0.8770   -0.5442    0.6371 C   0  0  0  0  0  0  0  0  0  0  0  0
    2.0293    0.9177   -0.5471 C   0  0  0  0  0  0  0  0  0  0  0  0
    0.1204   -0.0097   -0.3830 C   0  0  0  0  0  0  0  0  0  0  0  0
   -2.5461    0.0106    0.6208 N   0  0  0  0  0  0  0  0  0  0  0  0
   -2.0060    0.3523   -1.9378 O   0  0  0  0  0  0  0  0  0  0  0  0
   -1.6653   -1.8850   -1.0033 O   0  0  0  0  0  0  0  0  0  0  0  0
    0.8268    0.8553   -1.0714 O   0  0  0  0  0  0  0  0  0  0  0  0
   -1.5501   -0.4125   -0.7273 S   0  0  0  0  0  6  0  0  0  0  0  0
  1  2  1  0
  1  3  2  0
  2  4  2  0
  3  8  1  0
  4  8  1  0
  4  9  1  0
  5  9  1  0
  6  9  2  0
  7  9  2  0
M  END
$$$$
