
     RDKit          3D

 13 14  0  0  0  0  0  0  0  0999 V2000
   -3.2437    0.0743    0.1122 C   0  0  0  0  0  0  0  0  0  0  0  0
   -2.8347    1.3729   -0.2680 C   0  0  0  0  0  0  0  0  0  0  0  0
   -2.2894   -0.9313    0.3545 C   0  0  0  0  0  0  0  0  0  0  0  0
   -1.4677    1.6772   -0.4092 C   0  0  0  0  0  0  0  0  0  0  0  0
    0.1942   -1.3505    0.3700 C   0  0  0  0  0  0  0  0  0  0  0  0
   -0.9451   -0.5974    0.2059 C   0  0  0  0  0  0  0  0  0  0  0  0
   -0.5473    0.6612   -0.1626 C   0  0  0  0  0  0  0  0  0  0  0  0
    1.2274   -0.4664    0.0802 C   0  0  0  0  0  0  0  0  0  0  0  0
    3.8686    0.5242   -0.3055 N   0  0  0  0  0  0  0  0  0  0  0  0
    3.3113   -1.3087    1.5072 O   0  0  0  0  0  0  0  0  0  0  0  0
    3.2144   -1.9706   -0.8567 O   0  0  0  0  0  0  0  0  0  0  0  0
    0.7593    0.7273   -0.2346 O   0  0  0  0  0  0  0  0  0  0  0  0
    2.9333   -0.8659    0.1221 S   0  0  0  0  0  6  0  0  0  0  0  0
  1  2  2  0
  1  3  1  0
  2  4  1  0
  3  6  2  0
  4  7  2  0
  5  6  1  0
  5  8  2  0
  6  7  1  0
  7 12  1  0
  8 12  1  0
  8 13  1  0
  9 13  1  0
 10 13  2  0
 11 13  2  0
M  END
$$$$
