2PJ6_059_A_401_
     RDKit          3D

 32 33  0  0  0  0  0  0  0  0999 V2000
   16.5329   25.3270   97.3293 C   0  0  0  0  0  0  0  0  0  0  0  0
   15.4251   26.0072   97.8902 C   0  0  0  0  0  0  0  0  0  0  0  0
   15.0887   27.3047   97.4267 C   0  0  0  0  0  0  0  0  0  0  0  0
   15.8604   27.9205   96.4055 C   0  0  0  0  0  0  0  0  0  0  0  0
   16.9699   27.2390   95.8444 C   0  0  0  0  0  0  0  0  0  0  0  0
   17.3063   25.9407   96.3043 C   0  0  0  0  0  0  0  0  0  0  0  0
   18.4703   25.1757   95.6656 C   0  0  0  0  0  0  0  0  0  0  0  0
   19.6826   25.0778   96.6022 C   0  0  0  0  0  0  0  0  0  0  0  0
   20.9116   26.4118   96.4217 S   0  0  0  0  0  0  0  0  0  0  0  0
   21.4653   26.3831   95.0289 O   0  0  0  0  0  0  0  0  0  0  0  0
   20.2863   27.7539   96.6837 O   0  0  0  0  0  0  0  0  0  0  0  0
   22.1341   26.1440   97.5381 N   0  0  0  0  0  0  0  0  0  0  0  0
   23.4976   25.8963   97.2109 C   0  0  0  0  0  0  0  0  0  0  0  0
   24.4333   26.9180   97.9027 C   0  0  0  0  0  0  0  0  0  0  0  0
   24.2124   27.0079   99.4185 C   0  0  0  0  0  0  0  0  0  0  0  0
   24.2429   28.3088   97.2830 C   0  0  0  0  0  0  0  0  0  0  0  0
   23.9703   24.1115   97.4218 P   0  0  0  0  0  0  0  0  0  0  0  0
   25.4216   24.0118   97.1831 O   0  0  0  0  0  0  0  0  0  0  0  0
   23.0413   23.3626   96.5212 O   0  0  0  0  0  0  0  0  0  0  0  0
   23.5990   23.6505   99.1564 C   0  0  0  0  0  0  0  0  0  0  0  0
   23.5018   22.1034   99.2961 C   0  0  0  0  0  0  0  0  0  0  0  0
   22.2337   21.5457   98.6092 C   0  0  0  0  0  0  0  0  0  0  0  0
   22.3347   20.4234   98.0645 O   0  0  0  0  0  0  0  0  0  0  0  0
   21.1923   22.2464   98.6674 O   0  0  0  0  0  0  0  0  0  0  0  0
   23.4525   21.6685  100.7693 C   0  0  0  0  0  0  0  0  0  0  0  0
   24.2919   20.6189  101.1954 C   0  0  0  0  0  0  0  0  0  0  0  0
   22.4796   22.2090  101.6574 C   0  0  0  0  0  0  0  0  0  0  0  0
   22.3482   21.6797  102.9609 C   0  0  0  0  0  0  0  0  0  0  0  0
   23.1864   20.6207  103.3809 C   0  0  0  0  0  0  0  0  0  0  0  0
   24.1561   20.0919  102.5010 C   0  0  0  0  0  0  0  0  0  0  0  0
   25.0420   18.9391  102.9471 C   0  0  0  0  0  0  0  0  0  0  0  0
   24.4237   17.6685  102.5411 N   0  0  0  0  0  0  0  0  0  0  0  0
  1  2  2  0
  2  3  1  0
  3  4  2  0
  4  5  1  0
  1  6  1  0
  5  6  2  0
  6  7  1  0
  7  8  1  0
  8  9  1  0
  9 10  2  0
  9 11  2  0
  9 12  1  0
 12 13  1  0
 13 14  1  0
 14 15  1  0
 14 16  1  0
 13 17  1  0
 17 18  1  0
 17 19  2  0
 17 20  1  0
 20 21  1  0
 21 22  1  0
 22 23  2  0
 22 24  1  0
 21 25  1  0
 25 26  2  0
 25 27  1  0
 27 28  2  0
 28 29  1  0
 26 30  1  0
 29 30  2  0
 30 31  1  0
 31 32  1  0
M  END
$$$$
