
     RDKit          3D

 44 46  0  0  0  0  0  0  0  0999 V2000
    0.6547    3.7522    0.3466 C   0  0  0  0  0  0  0  0  0  0  0  0
    2.5268    2.5815    1.5602 C   0  0  0  0  0  0  0  0  0  0  0  0
   -0.8139   -5.1752    2.5624 C   0  0  0  0  0  0  0  0  0  0  0  0
   -9.6404    3.3551   -2.2372 C   0  0  0  0  0  0  0  0  0  0  0  0
   -0.0129   -4.0313    2.5357 C   0  0  0  0  0  0  0  0  0  0  0  0
   -2.0542   -5.1753    1.9196 C   0  0  0  0  0  0  0  0  0  0  0  0
   -8.6818    4.0140   -1.4614 C   0  0  0  0  0  0  0  0  0  0  0  0
   -9.6172    1.9612   -2.3420 C   0  0  0  0  0  0  0  0  0  0  0  0
    6.5966   -0.8729    1.1959 C   0  0  0  0  0  0  0  0  0  0  0  0
   -0.4481   -2.8862    1.8629 C   0  0  0  0  0  0  0  0  0  0  0  0
   -2.4925   -4.0324    1.2437 C   0  0  0  0  0  0  0  0  0  0  0  0
   -7.7008    3.2803   -0.7870 C   0  0  0  0  0  0  0  0  0  0  0  0
   -8.6373    1.2238   -1.6693 C   0  0  0  0  0  0  0  0  0  0  0  0
    6.9136   -2.0609    0.5347 C   0  0  0  0  0  0  0  0  0  0  0  0
    5.7880    0.0816    0.5757 C   0  0  0  0  0  0  0  0  0  0  0  0
    5.6137   -1.3406   -1.3814 C   0  0  0  0  0  0  0  0  0  0  0  0
   -2.1718   -1.6459    0.4824 C   0  0  0  0  0  0  0  0  0  0  0  0
    6.8141   -3.5606   -1.4896 C   0  0  0  0  0  0  0  0  0  0  0  0
   -6.6092    1.0975   -0.1722 C   0  0  0  0  0  0  0  0  0  0  0  0
    3.0321    0.3722   -1.8439 C   0  0  0  0  0  0  0  0  0  0  0  0
   -2.4370    0.1033    2.4147 C   0  0  0  0  0  0  0  0  0  0  0  0
    1.5881    2.5334    0.3438 C   0  0  0  0  0  0  0  0  0  0  0  0
   -1.6889   -2.8807    1.2036 C   0  0  0  0  0  0  0  0  0  0  0  0
   -7.6789    1.8785   -0.8776 C   0  0  0  0  0  0  0  0  0  0  0  0
    6.4193   -2.3052   -0.7552 C   0  0  0  0  0  0  0  0  0  0  0  0
    5.2744   -0.1464   -0.7148 C   0  0  0  0  0  0  0  0  0  0  0  0
   -3.1219   -0.7972    1.3599 C   0  0  1  0  0  0  0  0  0  0  0  0
    4.4084    0.9094   -1.3780 C   0  0  1  0  0  0  0  0  0  0  0  0
    0.8284    1.1764    0.1645 C   0  0  2  0  0  0  0  0  0  0  0  0
    5.1628    1.5248   -2.5259 C   0  0  0  0  0  0  0  0  0  0  0  0
   -4.2165    0.5336   -0.5302 C   0  0  0  0  0  0  0  0  0  0  0  0
    8.0757   -3.3754   -2.2020 N   0  0  0  0  0  0  0  0  0  0  0  0
   -4.1758   -0.0824    0.6227 N   0  0  0  0  0  0  0  0  0  0  0  0
    0.1958    0.6611    1.3926 N   0  0  0  0  0  0  0  0  0  0  0  0
    5.2100    0.9499   -3.6466 O   0  0  0  0  0  0  0  0  0  0  0  0
    5.8671    2.7090   -2.3275 O   0  0  0  0  0  0  0  0  0  0  0  0
   -3.1222    0.6341   -1.3888 O   0  0  0  0  0  0  0  0  0  0  0  0
    2.8286   -0.7891    0.8154 O   0  0  0  0  0  0  0  0  0  0  0  0
    1.0431   -1.2472   -1.0135 O   0  0  0  0  0  0  0  0  0  0  0  0
   -1.1201    2.3576    2.9300 O   0  0  0  0  0  0  0  0  0  0  0  0
   -1.9512    2.1098    0.6484 O   0  0  0  0  0  0  0  0  0  0  0  0
   -5.4133    1.1290   -0.9456 O   0  0  0  0  0  0  0  0  0  0  0  0
    1.9318   -0.1502   -0.4714 P   0  0  2  0  0  5  0  0  0  0  0  0
   -1.3344    1.3815    1.8075 S   0  0  0  0  0  6  0  0  0  0  0  0
  1 22  1  0
  2 22  1  0
  3  5  2  0
  3  6  1  0
  4  7  2  0
  4  8  1  0
  5 10  1  0
  6 11  2  0
  7 12  1  0
  8 13  2  0
  9 14  2  0
  9 15  1  0
 10 23  2  0
 11 23  1  0
 12 24  2  0
 13 24  1  0
 14 25  1  0
 15 26  2  0
 16 25  2  0
 16 26  1  0
 17 23  1  0
 27 17  1  6
 18 25  1  0
 18 32  1  0
 19 24  1  0
 19 42  1  0
 28 20  1  6
 20 43  1  0
 21 27  1  0
 21 44  1  0
 22 29  1  0
 26 28  1  0
 27 33  1  0
 28 30  1  0
 29 34  1  1
 29 43  1  0
 30 35  2  0
 30 36  1  0
 31 33  2  3
 31 37  1  0
 31 42  1  0
 34 44  1  0
 43 38  1  1
 39 43  2  0
 40 44  2  0
 41 44  2  0
M  END
$$$$
