1GI1_BMZ_A_246_
     RDKit          3D

 31 33  0  0  0  0  0  0  0  0999 V2000
   44.5586   -2.8354   26.4113 C   0  0  0  0  0  0  0  0  0  0  0  0
   45.1126   -1.5127   26.5096 C   0  0  0  0  0  0  0  0  0  0  0  0
   45.1220   -0.7779   27.7011 C   0  0  0  0  0  0  0  0  0  0  0  0
   44.5505   -1.3887   28.7859 C   0  0  0  0  0  0  0  0  0  0  0  0
   44.0104   -2.6336   28.7488 C   0  0  0  0  0  0  0  0  0  0  0  0
   43.9955   -3.3928   27.5888 C   0  0  0  0  0  0  0  0  0  0  0  0
   44.5569   -3.5253   25.1646 C   0  0  0  0  0  0  0  0  0  0  0  0
   44.2951   -4.8200   25.1280 N   0  0  0  0  0  0  0  0  0  0  0  0
   44.8250   -2.8668   24.0616 N   0  0  0  0  0  0  0  0  0  0  0  0
   44.3866   -0.9539   29.9952 N   0  0  0  0  0  0  0  0  0  0  0  0
   43.5108   -3.0048   29.9257 N   0  0  0  0  0  0  0  0  0  0  0  0
   43.7824   -1.9070   30.6258 C   0  0  0  0  0  0  0  0  0  0  0  0
   43.4361   -1.7239   31.9810 C   0  0  0  0  0  0  0  0  0  0  0  0
   43.0010   -2.7742   32.8022 C   0  0  0  0  0  0  0  0  0  0  0  0
   42.6400   -2.5606   34.1324 C   0  0  0  0  0  0  0  0  0  0  0  0
   42.6957   -1.2918   34.6706 C   0  0  0  0  0  0  0  0  0  0  0  0
   43.1219   -0.2407   33.8976 C   0  0  0  0  0  0  0  0  0  0  0  0
   43.4854   -0.4449   32.5725 C   0  0  0  0  0  0  0  0  0  0  0  0
   43.9028    0.6603   31.8775 O   0  0  0  0  0  0  0  0  0  0  0  0
   45.5751   -1.0668   25.6444 H   0  0  0  0  0  0  0  0  0  0  0  0
   45.5492    0.2092   27.7661 H   0  0  0  0  0  0  0  0  0  0  0  0
   43.5565   -4.3796   27.5811 H   0  0  0  0  0  0  0  0  0  0  0  0
   44.1249   -5.3287   25.9837 H   0  0  0  0  0  0  0  0  0  0  0  0
   44.2118   -5.3555   24.2860 H   0  0  0  0  0  0  0  0  0  0  0  0
   45.0496   -1.8809   24.1204 H   0  0  0  0  0  0  0  0  0  0  0  0
   44.8488   -3.2777   23.1611 H   0  0  0  0  0  0  0  0  0  0  0  0
   44.6452   -0.1020   30.4138 H   0  0  0  0  0  0  0  0  0  0  0  0
   42.9469   -3.7789   32.4045 H   0  0  0  0  0  0  0  0  0  0  0  0
   42.3091   -3.3931   34.7416 H   0  0  0  0  0  0  0  0  0  0  0  0
   42.4189   -1.1293   35.7009 H   0  0  0  0  0  0  0  0  0  0  0  0
   43.1752    0.7511   34.3205 H   0  0  0  0  0  0  0  0  0  0  0  0
  1  2  2  0
  2  3  1  0
  3  4  2  0
  4  5  1  0
  1  6  1  0
  5  6  2  0
  1  7  1  0
  7  8  1  0
  7  9  2  0
  4 10  1  0
  5 11  1  0
 10 12  1  0
 11 12  2  0
 12 13  1  0
 13 14  2  0
 14 15  1  0
 15 16  2  0
 16 17  1  0
 13 18  1  0
 17 18  2  0
 18 19  1  0
  2 20  1  0
  3 21  1  0
  6 22  1  0
  8 23  1  0
  8 24  1  0
  9 25  1  0
  9 26  1  0
 10 27  1  0
 14 28  1  0
 15 29  1  0
 16 30  1  0
 17 31  1  0
M  CHG  1   9   1
M  END
$$$$
