
     RDKit          3D

 28 30  0  0  0  0  0  0  0  0999 V2000
    5.0799   -0.3247    0.1244 C   0  0  0  0  0  0  0  0  0  0  0  0
    4.1814   -1.3124   -0.3205 C   0  0  0  0  0  0  0  0  0  0  0  0
   -1.7453   -0.7041   -0.3861 C   0  0  0  0  0  0  0  0  0  0  0  0
   -3.3345   -2.5036   -0.7003 C   0  0  0  0  0  0  0  0  0  0  0  0
    3.2117    1.0763    0.8652 C   0  0  0  0  0  0  0  0  0  0  0  0
   -4.3341    0.6647    0.6682 C   0  0  0  0  0  0  0  0  0  0  0  0
    4.6075    0.8755    0.7278 C   0  0  0  0  0  0  0  0  0  0  0  0
   -3.0727   -1.1310   -0.5738 C   0  0  0  0  0  0  0  0  0  0  0  0
   -4.2120   -0.1319   -0.6473 C   0  0  2  0  0  0  0  0  0  0  0  0
   -0.6875   -1.6294   -0.3199 C   0  0  0  0  0  0  0  0  0  0  0  0
   -2.2948   -3.4335   -0.6402 C   0  0  0  0  0  0  0  0  0  0  0  0
    2.8221   -1.0720   -0.1569 C   0  0  0  0  0  0  0  0  0  0  0  0
    2.3596    0.0742    0.4088 C   0  0  0  0  0  0  0  0  0  0  0  0
   -5.5727    1.5086    0.6873 C   0  0  0  0  0  0  0  0  0  0  0  0
   -0.9745   -3.0051   -0.4493 C   0  0  0  0  0  0  0  0  0  0  0  0
    5.5704    1.9075    1.1874 C   0  0  0  0  0  0  0  0  0  0  0  0
    0.7053   -1.1502   -0.1278 C   0  0  0  0  0  0  0  0  0  0  0  0
   -4.0348    0.7668   -1.8444 C   0  0  0  0  0  0  0  0  0  0  0  0
   -2.6988   -5.2962   -0.8150 Br  0  0  0  0  0  0  0  0  0  0  0  0
    6.7507    1.9640    0.6539 N   0  0  0  0  0  0  0  0  0  0  0  0
    5.2196    2.8338    2.2232 N   0  0  0  0  0  0  0  0  0  0  0  0
    1.7976   -1.8688   -0.5069 N   0  0  0  0  0  0  0  0  0  0  0  0
    1.0218    0.0463    0.4352 N   0  0  0  0  0  0  0  0  0  0  0  0
   -6.6814    0.9990    0.9979 O   0  0  0  0  0  0  0  0  0  0  0  0
   -5.5091    2.8475    0.3222 O   0  0  0  0  0  1  0  0  0  0  0  0
    0.0418   -3.9529   -0.3746 O   0  0  0  0  0  1  0  0  0  0  0  0
   -4.6158    0.4879   -2.9274 O   0  0  0  0  0  0  0  0  0  0  0  0
   -3.1987    1.8784   -1.7773 O   0  0  0  0  0  0  0  0  0  0  0  0
  1  2  2  0
  1  7  1  0
  2 12  1  0
  3  8  2  0
  3 10  1  0
  4  8  1  0
  4 11  2  0
  5  7  2  0
  5 13  1  0
  9  6  1  1
  6 14  1  0
  7 16  1  0
  8  9  1  0
  9 18  1  0
 10 15  2  0
 10 17  1  0
 11 15  1  0
 11 19  1  0
 12 13  2  0
 12 22  1  0
 13 23  1  0
 14 24  2  0
 14 25  1  0
 15 26  1  0
 16 20  2  3
 16 21  1  0
 17 22  2  0
 17 23  1  0
 18 27  2  0
 18 28  1  0
M  CHG  2  25  -1  26  -1
M  END
$$$$
