
     RDKit          3D

 22 24  0  0  0  0  0  0  0  0999 V2000
    5.2469   -1.8884    2.2722 C   0  0  0  0  0  0  0  0  0  0  0  0
    5.0031   -1.4953    1.0239 C   0  0  0  0  0  0  0  0  0  0  0  0
   -5.0297   -0.7785    2.0775 C   0  0  0  0  0  0  0  0  0  0  0  0
   -4.4306    0.4516    1.7949 C   0  0  0  0  0  0  0  0  0  0  0  0
   -4.4775   -1.9571    1.5696 C   0  0  0  0  0  0  0  0  0  0  0  0
   -3.2827    0.5065    0.9981 C   0  0  0  0  0  0  0  0  0  0  0  0
   -3.3295   -1.9068    0.7729 C   0  0  0  0  0  0  0  0  0  0  0  0
    2.8458    1.4807   -2.0139 C   0  0  0  0  0  0  0  0  0  0  0  0
    1.7923    2.1945   -2.5885 C   0  0  0  0  0  0  0  0  0  0  0  0
    1.2613    0.0751   -0.8336 C   0  0  0  0  0  0  0  0  0  0  0  0
   -1.8416    2.2616   -2.5655 C   0  0  0  0  0  0  0  0  0  0  0  0
   -2.7302   -0.6743    0.4663 C   0  0  0  0  0  0  0  0  0  0  0  0
    2.5899    0.4440   -1.1100 C   0  0  0  0  0  0  0  0  0  0  0  0
    0.1904    0.7788   -1.4185 C   0  0  0  0  0  0  0  0  0  0  0  0
    0.4689    1.8574   -2.2883 C   0  0  0  0  0  0  0  0  0  0  0  0
    3.8559   -0.6410    0.6783 C   0  0  0  0  0  0  0  0  0  0  0  0
   -1.1635    0.4724   -1.1592 C   0  0  0  0  0  0  0  0  0  0  0  0
   -0.5491    2.5684   -2.8373 N   0  0  0  0  0  0  0  0  0  0  0  0
   -2.1371    1.2241   -1.7427 N   0  0  0  0  0  0  0  0  0  0  0  0
    3.6942   -0.2930   -0.5664 N   0  0  0  0  0  0  0  0  0  0  0  0
   -1.5378   -0.6470   -0.3375 N   0  0  0  0  0  0  0  0  0  0  0  0
    2.9957   -0.1977    1.6890 O   0  0  0  0  0  0  0  0  0  0  0  0
  1  2  2  0
  2 16  1  0
  3  4  2  0
  3  5  1  0
  4  6  1  0
  5  7  2  0
  6 12  2  0
  7 12  1  0
  8  9  2  0
  8 13  1  0
  9 15  1  0
 10 13  2  0
 10 14  1  0
 11 18  2  0
 11 19  1  0
 12 21  1  0
 13 20  1  0
 14 15  2  0
 14 17  1  0
 15 18  1  0
 16 20  2  3
 16 22  1  0
 17 19  2  0
 17 21  1  0
M  END
$$$$
