1FSW_CTB_A_964_AB
     RDKit          3D

 13 13  0  0  0  0  0  0  0  0999 V2000
   76.9966    4.5378   28.5499 B   0  0  0  0  0  0  0  0  0  0  0  0
   78.0835    3.4779   28.6304 O   0  0  0  0  0  0  0  0  0  0  0  0
   76.9362    5.1116   27.1825 O   0  0  0  0  0  0  0  0  0  0  0  0
   77.2663    5.6675   29.5815 C   0  0  0  0  0  0  0  0  0  0  0  0
   78.5540    6.3580   29.3167 N   0  0  0  0  0  0  0  0  0  0  0  0
   79.2184    6.9545   30.3379 C   0  0  0  0  0  0  0  0  0  0  0  0
   78.7738    6.9126   31.5040 O   0  0  0  0  0  0  0  0  0  0  0  0
   80.5451    7.6690   30.0653 C   0  0  0  0  0  0  0  0  0  0  0  0
   81.6207    6.7805   30.0354 C   0  0  0  0  0  0  0  0  0  0  0  0
   81.9293    6.1433   28.8658 C   0  0  0  0  0  0  0  0  0  0  0  0
   83.0011    5.3024   29.0680 C   0  0  0  0  0  0  0  0  0  0  0  0
   83.4488    5.3428   30.3867 C   0  0  0  0  0  0  0  0  0  0  0  0
   82.5654    6.4223   31.4239 S   0  0  0  0  0  0  0  0  0  0  0  0
  1  2  1  0
  1  3  1  0
  1  4  1  0
  4  5  1  0
  5  6  1  0
  6  7  2  0
  6  8  1  0
  8  9  1  0
  9 10  2  0
 10 11  1  0
 11 12  2  0
  9 13  1  0
 12 13  1  0
M  END
$$$$
