
     RDKit          3D

 20 21  0  0  0  0  0  0  0  0999 V2000
   -3.7258    1.1537    0.1911 C   0  0  0  0  0  0  0  0  0  0  0  0
   -2.3610    1.9468    2.1403 C   0  0  0  0  0  0  0  0  0  0  0  0
   -2.5033   -1.8541   -0.8046 C   0  0  0  0  0  0  0  0  0  0  0  0
    3.9702    1.4451    0.6176 C   0  0  0  0  0  0  0  0  0  0  0  0
    3.5103    0.4926   -0.2965 C   0  0  0  0  0  0  0  0  0  0  0  0
    3.8419    1.2185    1.9905 C   0  0  0  0  0  0  0  0  0  0  0  0
    2.7940   -0.9192    1.5402 C   0  0  0  0  0  0  0  0  0  0  0  0
   -1.6396   -0.1531    0.9424 C   0  0  0  0  0  0  0  0  0  0  0  0
    2.3748   -1.7005   -0.8228 C   0  0  0  0  0  0  0  0  0  0  0  0
   -2.3101    1.2375    0.7788 C   0  0  0  0  0  0  0  0  0  0  0  0
    2.9260   -0.7009    0.1588 C   0  0  0  0  0  0  0  0  0  0  0  0
    3.2525    0.0374    2.4528 C   0  0  0  0  0  0  0  0  0  0  0  0
   -0.1043   -1.7996   -0.1669 C   0  0  0  0  0  0  0  0  0  0  0  0
    0.4115   -0.3783   -1.8113 C   0  0  0  0  0  0  0  0  0  0  0  0
   -1.3389   -0.9511   -0.3639 C   0  0  1  0  0  0  0  0  0  0  0  0
    3.0796   -0.2408    4.1759 Cl  0  0  0  0  0  0  0  0  0  0  0  0
    1.0727    0.2562   -2.7246 N   0  0  0  0  0  0  0  0  0  0  0  0
   -0.9311   -0.0694   -1.4612 N   0  0  0  0  0  0  0  0  0  0  0  0
    0.9536   -1.4473   -1.0533 N   0  0  0  0  0  0  0  0  0  0  0  0
    0.0002   -2.7092    0.6998 O   0  0  0  0  0  0  0  0  0  0  0  0
  1 10  1  0
  2 10  1  0
 15  3  1  6
  4  5  2  0
  4  6  1  0
  5 11  1  0
  6 12  2  0
  7 11  2  0
  7 12  1  0
  8 10  1  0
  8 15  1  0
  9 11  1  0
  9 19  1  0
 12 16  1  0
 13 15  1  0
 13 19  1  0
 13 20  2  0
 14 17  2  3
 14 18  1  0
 14 19  1  0
 15 18  1  0
M  END
$$$$
