3L5D_BDV_B_455_
     RDKit          3D

 28 29  0  0  0  0  0  0  0  0999 V2000
   22.3680   34.5980   56.1000 C   0  0  0  0  0  0  0  0  0  0  0  0
   21.8060   35.7170   56.8390 N   0  0  0  0  0  0  0  0  0  0  0  0
   22.4710   32.2520   56.8260 O   0  0  0  0  0  0  0  0  0  0  0  0
   21.3450   35.2210   58.0110 C   0  0  0  0  0  0  0  0  0  0  0  0
   21.5330   33.8930   58.1520 N   0  0  0  0  0  0  0  0  0  0  0  0
   14.5900   30.9140   59.0160 O   0  0  0  0  0  0  0  0  0  0  0  0
   22.1420   33.4190   57.0520 C   0  0  0  0  0  0  0  0  0  0  0  0
   20.7560   35.9620   58.9510 N   0  0  0  0  0  0  0  0  0  0  0  0
   23.8890   34.7560   55.9170 C   0  0  0  0  0  0  0  0  0  0  0  0
   15.6210   30.2660   57.1120 N   0  0  0  0  0  0  0  0  0  0  0  0
   21.6310   34.3730   54.7730 C   0  0  0  0  0  0  0  0  0  0  0  0
   13.7440   31.5530   57.0210 N   0  0  0  0  0  0  0  0  0  0  0  0
   20.1630   33.9770   54.9470 C   0  0  0  0  0  0  0  0  0  0  0  0
   19.6250   33.2500   53.7150 C   0  0  0  0  0  0  0  0  0  0  0  0
   19.2850   35.1690   55.3230 C   0  0  0  0  0  0  0  0  0  0  0  0
   21.1350   33.0820   59.3050 C   0  0  0  0  0  0  0  0  0  0  0  0
   19.9830   32.1610   58.9510 C   0  0  0  0  0  0  0  0  0  0  0  0
   20.0500   30.7680   59.2540 C   0  0  0  0  0  0  0  0  0  0  0  0
   18.9540   29.9110   58.9130 C   0  0  0  0  0  0  0  0  0  0  0  0
   17.7950   30.4510   58.2700 C   0  0  0  0  0  0  0  0  0  0  0  0
   17.7370   31.8430   57.9700 C   0  0  0  0  0  0  0  0  0  0  0  0
   18.8250   32.6920   58.3100 C   0  0  0  0  0  0  0  0  0  0  0  0
   16.6300   29.5540   57.9030 C   0  0  0  0  0  0  0  0  0  0  0  0
   13.8980   31.4960   55.5690 C   0  0  0  0  0  0  0  0  0  0  0  0
   14.6410   32.7210   55.0570 C   0  0  0  0  0  0  0  0  0  0  0  0
   13.9060   34.0100   55.4010 C   0  0  0  0  0  0  0  0  0  0  0  0
   14.6460   30.9110   57.7900 C   0  0  0  0  0  0  0  0  0  0  0  0
   14.7040   35.2480   55.0220 C   0  0  0  0  0  0  0  0  0  0  0  0
  1  2  1  0
  2  4  1  0
  4  5  1  0
  1  7  1  0
  3  7  2  0
  5  7  1  0
  4  8  2  0
  1  9  1  0
  1 11  1  0
 11 13  1  0
 13 14  1  0
 13 15  1  0
  5 16  1  0
 16 17  1  0
 17 18  2  0
 18 19  1  0
 19 20  2  0
 20 21  1  0
 17 22  1  0
 21 22  2  0
 10 23  1  0
 20 23  1  0
 12 24  1  0
 24 25  1  0
 25 26  1  0
  6 27  2  0
 10 27  1  0
 12 27  1  0
 26 28  1  0
M  END
$$$$
