2CEQ_GIM_B_1493_
     RDKit          3D

 14 15  0  0  0  0  0  0  0  0999 V2000
   48.9930  -38.6621   16.9060 C   0  0  0  0  0  0  0  0  0  0  0  0
   49.3413  -37.5679   15.9508 C   0  0  0  0  0  0  0  0  0  0  0  0
   47.9874  -39.5393   16.7425 N   0  0  0  0  0  0  0  0  0  0  0  0
   48.3347  -37.5378   14.7812 C   0  0  0  0  0  0  0  0  0  0  0  0
   47.8606  -38.9583   14.4034 C   0  0  0  0  0  0  0  0  0  0  0  0
   47.0537  -39.5083   15.5807 C   0  0  0  0  0  0  0  0  0  0  0  0
   46.4722  -40.8986   15.3477 C   0  0  0  0  0  0  0  0  0  0  0  0
   49.0323  -40.0628   18.6165 C   0  0  0  0  0  0  0  0  0  0  0  0
   47.9948  -40.4055   17.7589 C   0  0  0  0  0  0  0  0  0  0  0  0
   49.6359  -38.9930   18.0487 N   0  0  0  0  0  0  0  0  0  0  0  0
   48.9101  -36.8434   13.6556 O   0  0  0  0  0  0  0  0  0  0  0  0
   49.3738  -36.2811   16.5781 O   0  0  0  0  0  0  0  0  0  0  0  0
   47.0575  -38.9314   13.2208 O   0  0  0  0  0  0  0  0  0  0  0  0
   47.5369  -41.7991   15.0828 O   0  0  0  0  0  0  0  0  0  0  0  0
  1  2  1  0
  1  3  2  0
  2  4  1  0
  4  5  1  0
  3  6  1  0
  5  6  1  0
  6  7  1  0
  3  9  1  0
  8  9  2  0
  1 10  1  0
  8 10  1  0
  4 11  1  0
  2 12  1  0
  5 13  1  0
  7 14  1  0
M  CHG  1   3   1
M  END
$$$$
