
     RDKit          3D

 13 13  0  0  0  0  0  0  0  0999 V2000
   -0.7449    1.8364    1.7308 C   0  0  0  0  0  0  0  0  0  0  0  0
   -1.3455   -2.1039   -1.3964 C   0  0  0  0  0  0  0  0  0  0  0  0
    3.8272   -0.2567   -0.6866 C   0  0  0  0  0  0  0  0  0  0  0  0
   -3.6777    0.7319   -0.4199 C   0  0  0  0  0  0  0  0  0  0  0  0
   -2.8918    1.4564    0.4773 C   0  0  0  0  0  0  0  0  0  0  0  0
   -3.1756   -0.4252   -1.0171 C   0  0  0  0  0  0  0  0  0  0  0  0
    1.3284   -0.1006   -0.3710 C   0  0  0  0  0  0  0  0  0  0  0  0
   -1.5919    1.0283    0.7877 C   0  0  0  0  0  0  0  0  0  0  0  0
   -1.8789   -0.8721   -0.7201 C   0  0  0  0  0  0  0  0  0  0  0  0
    2.6484   -0.6240    0.2172 C   0  0  2  0  0  0  0  0  0  0  0  0
   -1.0729   -0.1243    0.1634 C   0  0  0  0  0  0  0  0  0  0  0  0
    2.8787   -0.0942    1.5637 N   0  0  0  0  0  0  0  0  0  0  0  0
    0.2358   -0.5308    0.4338 O   0  0  0  0  0  0  0  0  0  0  0  0
  1  8  1  0
  2  9  1  0
 10  3  1  6
  4  5  2  0
  4  6  1  0
  5  8  1  0
  6  9  2  0
  7 10  1  0
  7 13  1  0
  8 11  2  0
  9 11  1  0
 10 12  1  0
 11 13  1  0
M  END
$$$$
