3L5E_BDW_B_455_
     RDKit          3D

 39 43  0  0  0  0  0  0  0  0999 V2000
   22.9410   34.6450   56.3070 C   0  0  0  0  0  0  0  0  0  0  0  0
   22.2540   35.7540   56.9690 N   0  0  0  0  0  0  0  0  0  0  0  0
   23.0130   32.3160   57.0680 O   0  0  0  0  0  0  0  0  0  0  0  0
   21.6630   35.2530   58.0790 C   0  0  0  0  0  0  0  0  0  0  0  0
   21.8730   33.9290   58.2510 N   0  0  0  0  0  0  0  0  0  0  0  0
   14.7940   30.9100   58.9020 O   0  0  0  0  0  0  0  0  0  0  0  0
   22.6290   33.4690   57.2350 C   0  0  0  0  0  0  0  0  0  0  0  0
   20.9360   35.9910   58.9300 N   0  0  0  0  0  0  0  0  0  0  0  0
   22.3760   34.4040   54.8850 C   0  0  0  0  0  0  0  0  0  0  0  0
   15.8420   30.4130   56.9610 N   0  0  0  0  0  0  0  0  0  0  0  0
   24.4610   34.8730   56.2500 C   0  0  0  0  0  0  0  0  0  0  0  0
   14.0190   31.6420   56.8970 N   0  0  0  0  0  0  0  0  0  0  0  0
   20.8640   34.1110   54.8250 C   0  0  0  0  0  0  0  0  0  0  0  0
   21.3690   33.0920   59.3440 C   0  0  0  0  0  0  0  0  0  0  0  0
   20.2440   32.1970   58.8740 C   0  0  0  0  0  0  0  0  0  0  0  0
   20.3370   30.7800   59.0220 C   0  0  0  0  0  0  0  0  0  0  0  0
   19.2650   29.9410   58.5780 C   0  0  0  0  0  0  0  0  0  0  0  0
   18.1000   30.5190   57.9880 C   0  0  0  0  0  0  0  0  0  0  0  0
   18.0210   31.9410   57.8450 C   0  0  0  0  0  0  0  0  0  0  0  0
   19.0850   32.7730   58.2880 C   0  0  0  0  0  0  0  0  0  0  0  0
   20.1330   35.2090   54.0470 C   0  0  0  0  0  0  0  0  0  0  0  0
   18.6730   34.8890   53.7290 C   0  0  0  0  0  0  0  0  0  0  0  0
   18.5450   33.5840   52.9730 C   0  0  0  0  0  0  0  0  0  0  0  0
   19.1730   32.4480   53.7840 C   0  0  0  0  0  0  0  0  0  0  0  0
   20.6210   32.7440   54.1730 C   0  0  0  0  0  0  0  0  0  0  0  0
   25.0690   35.0130   57.6250 C   0  0  0  0  0  0  0  0  0  0  0  0
   16.9500   29.6220   57.5090 C   0  0  0  0  0  0  0  0  0  0  0  0
   15.7470   30.6320   55.5320 C   0  0  0  0  0  0  0  0  0  0  0  0
   14.4790   31.5130   55.4960 C   0  0  0  0  0  0  0  0  0  0  0  0
   14.8730   30.9840   57.6830 C   0  0  0  0  0  0  0  0  0  0  0  0
   14.9110   32.8930   54.9850 C   0  0  0  0  0  0  0  0  0  0  0  0
   14.0050   34.0490   55.2900 C   0  0  0  0  0  0  0  0  0  0  0  0
   14.7000   35.3740   54.9950 C   0  0  0  0  0  0  0  0  0  0  0  0
   26.5100   35.5170   57.6120 C   0  0  0  0  0  0  0  0  0  0  0  0
   27.0050   35.7300   59.0460 C   0  0  0  0  0  0  0  0  0  0  0  0
   28.4940   36.0310   59.1700 C   0  0  0  0  0  0  0  0  0  0  0  0
   29.3560   35.0210   58.4080 C   0  0  0  0  0  0  0  0  0  0  0  0
   28.8970   34.8550   56.9550 C   0  0  0  0  0  0  0  0  0  0  0  0
   27.4020   34.5530   56.8380 C   0  0  0  0  0  0  0  0  0  0  0  0
  1  2  1  0
  2  4  1  0
  4  5  1  0
  1  7  1  0
  3  7  2  0
  5  7  1  0
  4  8  2  0
  1  9  1  0
  1 11  1  0
  9 13  1  0
  5 14  1  0
 14 15  1  0
 15 16  2  0
 16 17  1  0
 17 18  2  0
 18 19  1  0
 15 20  1  0
 19 20  2  0
 13 21  1  0
 21 22  1  0
 22 23  1  0
 23 24  1  0
 13 25  1  0
 24 25  1  0
 11 26  1  0
 10 27  1  0
 18 27  1  0
 10 28  1  0
 12 29  1  0
 28 29  1  0
  6 30  2  0
 10 30  1  0
 12 30  1  0
 29 31  1  0
 31 32  1  0
 32 33  1  0
 26 34  1  0
 34 35  1  0
 35 36  1  0
 36 37  1  0
 37 38  1  0
 34 39  1  0
 38 39  1  0
M  END
$$$$
