
     RDKit          3D

 28 29  0  0  0  0  0  0  0  0999 V2000
    8.4836    0.0115    2.0455 C   0  0  0  0  0  0  0  0  0  0  0  0
   -7.6051    1.3069    2.0252 C   0  0  0  0  0  0  0  0  0  0  0  0
   -7.0598   -0.8985    0.9622 C   0  0  0  0  0  0  0  0  0  0  0  0
   -3.5132   -0.4962    1.6955 C   0  0  0  0  0  0  0  0  0  0  0  0
    7.4945    0.1707    0.8945 C   0  0  0  0  0  0  0  0  0  0  0  0
    6.2839    1.0105    1.3194 C   0  0  0  0  0  0  0  0  0  0  0  0
    1.1201   -1.4555   -2.1013 C   0  0  0  0  0  0  0  0  0  0  0  0
    1.3391   -0.2964    0.0145 C   0  0  0  0  0  0  0  0  0  0  0  0
    0.1046   -0.5731   -2.4802 C   0  0  0  0  0  0  0  0  0  0  0  0
    0.3249    0.5870   -0.3651 C   0  0  0  0  0  0  0  0  0  0  0  0
    5.2905    1.2480    0.1744 C   0  0  0  0  0  0  0  0  0  0  0  0
   -5.3973    1.0620    0.8321 C   0  0  0  0  0  0  0  0  0  0  0  0
    2.8481   -2.2677   -0.4588 C   0  0  0  0  0  0  0  0  0  0  0  0
   -1.4224    1.3834   -2.0018 C   0  0  0  0  0  0  0  0  0  0  0  0
   -6.4741    0.3283    1.6759 C   0  0  0  0  0  0  0  0  0  0  0  0
    1.7416   -1.3261   -0.8502 C   0  0  0  0  0  0  0  0  0  0  0  0
   -0.2987    0.4573   -1.6161 C   0  0  0  0  0  0  0  0  0  0  0  0
   -3.0534    1.2354   -0.0294 C   0  0  0  0  0  0  0  0  0  0  0  0
   -3.4421   -0.1954   -1.7006 C   0  0  0  0  0  0  0  0  0  0  0  0
    4.8699   -0.8523   -1.0847 C   0  0  0  0  0  0  0  0  0  0  0  0
   -4.0946    0.2778    0.5016 C   0  0  1  0  0  0  0  0  0  0  0  0
   -3.3977   -0.8029   -2.8431 N   0  0  0  0  0  0  0  0  0  0  0  0
    4.5679    0.0219   -0.1650 N   0  0  0  0  0  0  0  0  0  0  0  0
    4.0428   -2.0097   -1.2613 N   0  0  0  0  0  0  0  0  0  0  0  0
   -4.2885   -0.6188   -0.6417 N   0  0  0  0  0  0  0  0  0  0  0  0
   -2.6738    0.9554   -1.3742 N   0  0  0  0  0  0  0  0  0  0  0  0
   -2.5508    2.1771    0.6419 O   0  0  0  0  0  0  0  0  0  0  0  0
    5.9803   -0.7009   -1.9197 O   0  0  0  0  0  0  0  0  0  0  0  0
  1  5  1  0
  2 15  1  0
  3 15  1  0
 21  4  1  1
  5  6  1  0
  6 11  1  0
  7  9  2  0
  7 16  1  0
  8 10  1  0
  8 16  2  0
  9 17  1  0
 10 17  2  0
 11 23  1  0
 12 15  1  0
 12 21  1  0
 13 16  1  0
 13 24  1  0
 14 17  1  0
 14 26  1  0
 18 21  1  0
 18 26  1  0
 18 27  2  0
 19 22  2  3
 19 25  1  0
 19 26  1  0
 20 23  2  3
 20 24  1  0
 20 28  1  0
 21 25  1  0
M  END
$$$$
