2VMF_MVL_B_1868_
     RDKit          3D

 14 15  0  0  0  0  0  0  0  0999 V2000
  -18.1113   57.4977   48.8045 C   0  0  0  0  0  0  0  0  0  0  0  0
  -17.6256   58.7479   48.8261 N   0  0  0  0  0  0  0  0  0  0  0  0
  -18.5634   57.4793   46.3954 C   0  0  0  0  0  0  0  0  0  0  0  0
  -18.0937   58.9619   46.5026 C   0  0  0  0  0  0  0  0  0  0  0  0
  -16.9893   59.2391   47.5844 C   0  0  0  0  0  0  0  0  0  0  0  0
  -16.5494   60.6808   47.7019 C   0  0  0  0  0  0  0  0  0  0  0  0
  -18.6578   58.3991   50.7389 C   0  0  0  0  0  0  0  0  0  0  0  0
  -17.9005   59.3230   50.0236 C   0  0  0  0  0  0  0  0  0  0  0  0
  -18.7418   57.2691   49.9676 N   0  0  0  0  0  0  0  0  0  0  0  0
  -20.0079   57.3607   46.3165 O   0  0  0  0  0  0  0  0  0  0  0  0
  -18.8193   55.4415   47.7806 O   0  0  0  0  0  0  0  0  0  0  0  0
  -17.6191   59.3953   45.2282 O   0  0  0  0  0  0  0  0  0  0  0  0
  -18.0543   56.6435   47.5686 C   0  0  0  0  0  0  0  0  0  0  0  0
  -17.6188   61.4193   48.3640 O   0  0  0  0  0  0  0  0  0  0  0  0
  1  2  1  0
  3  4  1  0
  2  5  1  0
  4  5  1  0
  5  6  1  0
  2  8  1  0
  7  8  2  0
  1  9  2  0
  7  9  1  0
  3 10  1  0
  4 12  1  0
  1 13  1  0
  3 13  1  0
 11 13  1  0
  6 14  1  0
M  END
$$$$
