2BAJ_1PP_A_401_
     RDKit          3D

 27 29  0  0  0  0  0  0  0  0999 V2000
   -0.1626    1.9478   15.7570 O   0  0  0  0  0  0  0  0  0  0  0  0
   -1.0405    2.6152   15.2271 C   0  0  0  0  0  0  0  0  0  0  0  0
   -2.2744    2.6702   15.7355 N   0  0  0  0  0  0  0  0  0  0  0  0
   -2.6625    1.9976   16.8480 C   0  0  0  0  0  0  0  0  0  0  0  0
   -3.9261    1.4752   16.8527 C   0  0  0  0  0  0  0  0  0  0  0  0
   -4.9789    1.6707   15.4445 Cl  0  0  0  0  0  0  0  0  0  0  0  0
   -4.4392    0.7080   18.0152 C   0  0  0  0  0  0  0  0  0  0  0  0
   -6.1194    0.0951   17.9304 Cl  0  0  0  0  0  0  0  0  0  0  0  0
   -3.6171    0.5377   19.1302 C   0  0  0  0  0  0  0  0  0  0  0  0
   -2.3234    1.0952   19.0869 C   0  0  0  0  0  0  0  0  0  0  0  0
   -1.8484    1.7987   17.9696 C   0  0  0  0  0  0  0  0  0  0  0  0
   -0.8130    3.3264   14.1201 N   0  0  0  0  0  0  0  0  0  0  0  0
    0.3688    3.3606   13.4799 C   0  0  0  0  0  0  0  0  0  0  0  0
    1.2932    2.3408   13.2219 C   0  0  0  0  0  0  0  0  0  0  0  0
    2.2621    3.0203   12.4682 C   0  0  0  0  0  0  0  0  0  0  0  0
    3.5123    2.3726   11.9073 C   0  0  0  0  0  0  0  0  0  0  0  0
    3.0571    1.5363   10.7111 C   0  0  0  0  0  0  0  0  0  0  0  0
    4.1826    1.5360   12.9967 C   0  0  0  0  0  0  0  0  0  0  0  0
    4.4779    3.4640   11.4458 C   0  0  0  0  0  0  0  0  0  0  0  0
    1.9993    4.3112   12.2146 N   0  0  0  0  0  0  0  0  0  0  0  0
    0.7660    4.4993   12.8665 N   0  0  0  0  0  0  0  0  0  0  0  0
    0.2017    5.7609   12.8775 C   0  0  0  0  0  0  0  0  0  0  0  0
   -0.3570    6.3603   14.0072 C   0  0  0  0  0  0  0  0  0  0  0  0
    0.1488    6.5985   11.7449 C   0  0  0  0  0  0  0  0  0  0  0  0
   -0.3986    7.9243   11.7203 C   0  0  0  0  0  0  0  0  0  0  0  0
   -0.9219    8.4943   12.8959 C   0  0  0  0  0  0  0  0  0  0  0  0
   -0.8591    7.6965   14.0594 C   0  0  0  0  0  0  0  0  0  0  0  0
  1  2  2  0
  2  3  1  0
  3  4  1  0
  4  5  2  0
  5  6  1  0
  5  7  1  0
  7  8  1  0
  7  9  2  0
  9 10  1  0
  4 11  1  0
 10 11  2  0
  2 12  1  0
 12 13  1  0
 13 14  2  0
 14 15  1  0
 15 16  1  0
 16 17  1  0
 16 18  1  0
 16 19  1  0
 15 20  2  0
 13 21  1  0
 20 21  1  0
 21 22  1  0
 22 23  2  0
 22 24  1  0
 24 25  2  0
 25 26  1  0
 23 27  1  0
 26 27  2  0
M  END
$$$$
