2WI6_ZZ6_A_1224_
     RDKit          3D

 23 25  0  0  0  0  0  0  0  0999 V2000
    1.6956   13.7036   24.6880 Cl  0  0  0  0  0  0  0  0  0  0  0  0
    2.6950   12.2700   24.2760 C   0  0  0  0  0  0  0  0  0  0  0  0
    3.9707   12.4281   23.7513 C   0  0  0  0  0  0  0  0  0  0  0  0
    4.7370   11.3094   23.4356 C   0  0  0  0  0  0  0  0  0  0  0  0
    6.3848   11.5278   22.7592 Cl  0  0  0  0  0  0  0  0  0  0  0  0
    4.2411   10.0235   23.6380 C   0  0  0  0  0  0  0  0  0  0  0  0
    2.9687    9.8134   24.1606 C   0  0  0  0  0  0  0  0  0  0  0  0
    2.1687   10.8995   24.4900 C   0  0  0  0  0  0  0  0  0  0  0  0
    0.8069   10.6915   25.0499 C   0  0  0  0  0  0  0  0  0  0  0  0
   -0.2753   11.2392   24.4477 N   0  0  0  0  0  0  0  0  0  0  0  0
   -1.5394   11.0779   24.9217 C   0  0  0  0  0  0  0  0  0  0  0  0
   -2.5669   11.6597   24.2588 N   0  0  0  0  0  0  0  0  0  0  0  0
   -1.8068   10.3530   26.0371 N   0  0  0  0  0  0  0  0  0  0  0  0
   -0.7909    9.7663   26.7086 C   0  0  0  0  0  0  0  0  0  0  0  0
   -0.8927    8.8333   28.0980 S   0  0  0  0  0  0  0  0  0  0  0  0
    0.6108    9.8812   26.2772 C   0  0  0  0  0  0  0  0  0  0  0  0
    1.5363    9.1740   27.1435 C   0  0  0  0  0  0  0  0  0  0  0  0
    0.8282    8.5530   28.1872 C   0  0  0  0  0  0  0  0  0  0  0  0
    1.2611    7.7142   29.3401 C   0  0  0  0  0  0  0  0  0  0  0  0
    2.4202    7.3402   29.4057 O   0  0  0  0  0  0  0  0  0  0  0  0
    0.3669    7.3930   30.2707 N   0  0  0  0  0  0  0  0  0  0  0  0
    0.6780    6.4513   31.3284 C   0  0  0  0  0  0  0  0  0  0  0  0
    0.7262    7.1186   32.6852 C   0  0  0  0  0  0  0  0  0  0  0  0
  1  2  1  0
  2  3  2  0
  3  4  1  0
  4  5  1  0
  4  6  2  0
  6  7  1  0
  2  8  1  0
  7  8  2  0
  8  9  1  0
  9 10  2  0
 10 11  1  0
 11 12  1  0
 11 13  2  0
 13 14  1  0
 14 15  1  0
  9 16  1  0
 14 16  2  0
 16 17  1  0
 15 18  1  0
 17 18  2  0
 18 19  1  0
 19 20  2  0
 19 21  1  0
 21 22  1  0
 22 23  1  0
M  END
$$$$
