3UNZ_0BZ_B_1_
     RDKit          3D

 24 26  0  0  0  0  0  0  0  0999 V2000
    5.7460   50.7705   35.7370 F   0  0  0  0  0  0  0  0  0  0  0  0
    5.9581   55.7026   31.9741 N   0  0  0  0  0  0  0  0  0  0  0  0
    6.1037   54.5812   34.0966 N   0  0  0  0  0  0  0  0  0  0  0  0
    8.0544   55.1535   32.9393 N   0  0  0  0  0  0  0  0  0  0  0  0
    6.1612   53.4621   36.2352 N   0  0  0  0  0  0  0  0  0  0  0  0
    2.3163   55.3326   32.6865 C   0  0  0  0  0  0  0  0  0  0  0  0
    1.7998   56.3527   31.8962 C   0  0  0  0  0  0  0  0  0  0  0  0
    2.6507   57.1477   31.1458 C   0  0  0  0  0  0  0  0  0  0  0  0
    4.0172   56.9206   31.1856 C   0  0  0  0  0  0  0  0  0  0  0  0
    4.5383   55.9106   31.9785 C   0  0  0  0  0  0  0  0  0  0  0  0
    3.6856   55.1116   32.7276 C   0  0  0  0  0  0  0  0  0  0  0  0
    0.3328   56.6093   31.8509 C   0  0  0  0  0  0  0  0  0  0  0  0
    6.7192   55.1282   33.0430 C   0  0  0  0  0  0  0  0  0  0  0  0
    6.8170   54.0406   35.1011 C   0  0  0  0  0  0  0  0  0  0  0  0
    8.2076   54.0603   35.0145 C   0  0  0  0  0  0  0  0  0  0  0  0
    8.8265   54.6312   33.9063 C   0  0  0  0  0  0  0  0  0  0  0  0
    4.8467   52.9128   36.0977 C   0  0  0  0  0  0  0  0  0  0  0  0
    3.7386   53.7363   36.2095 C   0  0  0  0  0  0  0  0  0  0  0  0
    2.4663   53.2052   36.0779 C   0  0  0  0  0  0  0  0  0  0  0  0
    2.3004   51.8492   35.8290 C   0  0  0  0  0  0  0  0  0  0  0  0
    3.4112   51.0264   35.7148 C   0  0  0  0  0  0  0  0  0  0  0  0
    4.6831   51.5597   35.8483 C   0  0  0  0  0  0  0  0  0  0  0  0
   -0.2948   56.8381   32.9216 O   0  0  0  0  0  0  0  0  0  0  0  0
   -0.2692   56.6041   30.7467 O   0  0  0  0  0  0  0  0  0  0  0  0
  6  7  2  0
  7  8  1  0
  8  9  2  0
  9 10  1  0
  2 10  1  0
 10 11  2  0
  6 11  1  0
  7 12  1  0
  2 13  1  0
  4 13  1  0
  3 13  2  0
  3 14  1  0
  5 14  1  0
 14 15  2  0
  4 16  2  0
 15 16  1  0
  5 17  1  0
 17 18  2  0
 18 19  1  0
 19 20  2  0
 20 21  1  0
  1 22  1  0
 21 22  2  0
 17 22  1  0
 12 23  1  0
 12 24  2  0
M  END
$$$$
