3NI5_C1H_A_264_
     RDKit          3D

 30 31  0  0  0  0  0  0  0  0999 V2000
    4.0640    9.9060   11.7140 O   0  0  0  0  0  0  0  0  0  0  0  0
    3.0920    9.3570   12.5580 N   0  0  0  0  0  0  0  0  0  0  0  0
   -2.9470    9.1130    8.2640 O   0  0  0  0  0  0  0  0  0  0  0  0
   -6.5740    5.2820   12.7820 O   0  0  0  0  0  0  0  0  0  0  0  0
    2.0860    8.6000   12.0180 O   0  0  0  0  0  0  0  0  0  0  0  0
    1.0010    8.0460   12.7800 C   0  0  0  0  0  0  0  0  0  0  0  0
   -0.0090    9.1060   13.2270 C   0  0  0  0  0  0  0  0  0  0  0  0
   -1.2860    9.0800   12.3900 C   0  0  0  0  0  0  0  0  0  0  0  0
   -1.0090    9.2470   10.8910 C   0  0  0  0  0  0  0  0  0  0  0  0
   -2.0820    9.9450   10.2570 O   0  0  0  0  0  0  0  0  0  0  0  0
   -3.0980    9.2360    9.4760 C   0  0  0  0  0  0  0  0  0  0  0  0
   -4.3300    8.6600   10.1360 C   0  0  0  0  0  0  0  0  0  0  0  0
   -4.2130    7.6810   11.1460 C   0  0  0  0  0  0  0  0  0  0  0  0
   -5.3540    7.1230   11.7410 C   0  0  0  0  0  0  0  0  0  0  0  0
   -5.3510    6.0170   12.9260 S   0  0  0  0  0  0  0  0  0  0  0  0
   -4.1910    5.0330   13.1930 N   0  0  0  0  0  0  0  0  0  0  0  0
   -4.3150    3.9260   14.0450 C   0  0  0  0  0  0  0  0  0  0  0  0
   -3.3090    3.0360   14.3480 N   0  0  0  0  0  0  0  0  0  0  0  0
   -3.7040    1.9880   15.2520 N   0  0  0  0  0  0  0  0  0  0  0  0
   -5.3160    1.0230   18.1240 O   0  0  0  0  0  0  0  0  0  0  0  0
   -5.5950    9.0980    9.7130 C   0  0  0  0  0  0  0  0  0  0  0  0
   -6.7400    8.5660   10.2950 C   0  0  0  0  0  0  0  0  0  0  0  0
   -6.6040    7.6050   11.3040 C   0  0  0  0  0  0  0  0  0  0  0  0
   -5.4790    6.7900   14.1280 O   0  0  0  0  0  0  0  0  0  0  0  0
   -5.7530    3.4660   14.8880 S   0  0  0  0  0  0  0  0  0  0  0  0
   -5.0120    2.1020   15.6590 C   0  0  0  0  0  0  0  0  0  0  0  0
   -5.8430    1.0660   16.7120 S   0  0  0  0  0  0  0  0  0  0  0  0
   -5.7120   -0.3010   16.1660 N   0  0  0  0  0  0  0  0  0  0  0  0
   -7.2570    1.5060   16.7620 O   0  0  0  0  0  0  0  0  0  0  0  0
    3.1630    9.5750   13.7630 O   0  0  0  0  0  0  0  0  0  0  0  0
  1  2  1  0
  2  5  1  0
  5  6  1  0
  6  7  1  0
  7  8  1  0
  8  9  1  0
  9 10  1  0
  3 11  2  0
 10 11  1  0
 11 12  1  0
 12 13  2  0
 13 14  1  0
  4 15  2  0
 14 15  1  0
 15 16  1  0
 16 17  1  0
 17 18  2  0
 18 19  1  0
 12 21  1  0
 21 22  2  0
 14 23  2  0
 22 23  1  0
 15 24  2  0
 17 25  1  0
 19 26  2  0
 25 26  1  0
 20 27  2  0
 26 27  1  0
 27 28  1  0
 27 29  2  0
  2 30  2  0
M  CHG  2   1  -1   2   1
M  END
$$$$
