
     RDKit          3D

 19 20  0  0  0  0  0  0  0  0999 V2000
   -2.9394   -0.6823   -1.9267 C   0  0  0  0  0  0  0  0  0  0  0  0
   -2.9601    0.2156   -0.8555 C   0  0  0  0  0  0  0  0  0  0  0  0
   -2.2967   -1.9165   -1.7919 C   0  0  0  0  0  0  0  0  0  0  0  0
   -2.3370   -0.1189    0.3508 C   0  0  0  0  0  0  0  0  0  0  0  0
   -1.6721   -2.2534   -0.5868 C   0  0  0  0  0  0  0  0  0  0  0  0
   -1.6864   -1.3533    0.4889 C   0  0  0  0  0  0  0  0  0  0  0  0
    0.8929    0.3656    1.9531 C   0  0  0  0  0  0  0  0  0  0  0  0
    2.5260    1.3003    0.4754 C   0  0  0  0  0  0  0  0  0  0  0  0
    2.8583    1.5905   -2.3322 N   0  0  0  0  0  0  0  0  0  0  0  0
    1.4697    1.4855    2.4405 N   0  0  0  0  0  0  0  0  0  0  0  0
    2.3790    2.0054    1.6179 N   0  0  0  0  0  0  0  0  0  0  0  0
   -0.1175   -0.3569    2.6630 N   0  0  0  0  0  0  0  0  0  0  0  0
    4.8391    0.8275   -0.7522 O   0  0  0  0  0  0  0  0  0  0  0  0
    4.0919    3.1590   -0.6067 O   0  0  0  0  0  0  0  0  0  0  0  0
   -1.9210   -2.2636    2.9774 O   0  0  0  0  0  0  0  0  0  0  0  0
    0.1423   -2.8317    1.7894 O   0  0  0  0  0  0  0  0  0  0  0  0
    1.5078   -0.0393    0.4336 S   0  0  0  0  0  0  0  0  0  0  0  0
    3.6443    1.7371   -0.7992 S   0  0  0  0  0  6  0  0  0  0  0  0
   -0.8911   -1.7615    2.0055 S   0  0  0  0  0  6  0  0  0  0  0  0
  1  2  2  0
  1  3  1  0
  2  4  1  0
  3  5  2  0
  4  6  2  0
  5  6  1  0
  6 19  1  0
  7 10  2  0
  7 12  1  0
  7 17  1  0
  8 11  2  0
  8 17  1  0
  8 18  1  0
  9 18  1  0
 10 11  1  0
 12 19  1  0
 13 18  2  0
 14 18  2  0
 15 19  2  0
 16 19  2  0
M  END
$$$$
