
     RDKit          3D

 20 22  0  0  0  0  0  0  0  0999 V2000
    5.0119    1.8294    0.4003 C   0  0  0  0  0  0  0  0  0  0  0  0
    5.4590    0.7088   -0.2640 C   0  0  0  0  0  0  0  0  0  0  0  0
   -0.6027   -1.4792   -1.5258 C   0  0  0  0  0  0  0  0  0  0  0  0
   -2.9214   -1.3522   -0.8544 C   0  0  0  0  0  0  0  0  0  0  0  0
    1.1522    0.0885   -0.6837 C   0  0  0  0  0  0  0  0  0  0  0  0
   -0.2838   -0.3783   -0.7163 C   0  0  0  0  0  0  0  0  0  0  0  0
   -1.9096   -1.9631   -1.5996 C   0  0  0  0  0  0  0  0  0  0  0  0
   -2.6374   -0.2546   -0.0183 C   0  0  0  0  0  0  0  0  0  0  0  0
   -1.3046    0.2347    0.0618 C   0  0  0  0  0  0  0  0  0  0  0  0
   -3.6300    0.3869    0.7617 C   0  0  0  0  0  0  0  0  0  0  0  0
   -2.0041    1.8762    1.6336 C   0  0  0  0  0  0  0  0  0  0  0  0
    3.4973    0.3453    0.4868 C   0  0  0  0  0  0  0  0  0  0  0  0
   -2.2114   -3.0836   -2.4370 N   0  0  0  0  0  0  0  0  0  0  0  0
   -1.7151    2.8695    2.4124 N   0  0  0  0  0  0  0  0  0  0  0  0
    3.7712    1.6065    0.8785 N   0  0  0  0  0  0  0  0  0  0  0  0
    4.4989   -0.2258   -0.2057 N   0  0  0  0  0  0  0  0  0  0  0  0
   -1.0286    1.2861    0.8940 N   0  0  0  0  0  0  0  0  0  0  0  0
   -3.2800    1.4261    1.5581 N   0  0  0  0  0  0  0  0  0  0  0  0
   -4.9743    0.0044    0.7579 O   0  0  0  0  0  0  0  0  0  0  0  0
    1.9529   -0.4821    0.8521 S   0  0  0  0  0  0  0  0  0  0  0  0
  1  2  2  0
  1 15  1  0
  2 16  1  0
  3  6  2  0
  3  7  1  0
  4  7  2  0
  4  8  1  0
  5  6  1  0
  5 20  1  0
  6  9  1  0
  7 13  1  0
  8  9  2  0
  8 10  1  0
  9 17  1  0
 10 18  2  0
 10 19  1  0
 11 14  2  3
 11 17  1  0
 11 18  1  0
 12 15  2  0
 12 16  1  0
 12 20  1  0
M  END
$$$$
