3IW7_IPK_A_361_
     RDKit          3D

 23 25  0  0  0  0  0  0  0  0999 V2000
   19.8470    1.2650  -26.2270 O   0  0  0  0  0  0  0  0  0  0  0  0
   23.3840   -4.6850  -20.9720 C   0  0  0  0  0  0  0  0  0  0  0  0
   22.1240   -4.3700  -20.4590 C   0  0  0  0  0  0  0  0  0  0  0  0
   24.2050   -3.6660  -21.4750 C   0  0  0  0  0  0  0  0  0  0  0  0
   21.6830   -3.0510  -20.4620 C   0  0  0  0  0  0  0  0  0  0  0  0
   23.7710   -2.3460  -21.4700 C   0  0  0  0  0  0  0  0  0  0  0  0
   17.8320    4.9830  -24.2070 C   0  0  0  0  0  0  0  0  0  0  0  0
   20.0070    5.5530  -25.1100 C   0  0  0  0  0  0  0  0  0  0  0  0
   18.1050    3.6350  -24.3930 C   0  0  0  0  0  0  0  0  0  0  0  0
   20.2770    4.1990  -25.2910 C   0  0  0  0  0  0  0  0  0  0  0  0
   20.0890    0.7430  -21.6040 C   0  0  0  0  0  0  0  0  0  0  0  0
   20.8150   -1.1210  -23.1750 C   0  0  0  0  0  0  0  0  0  0  0  0
   19.3160    1.4610  -22.6970 C   0  0  0  0  0  0  0  0  0  0  0  0
   19.8710   -0.5590  -24.2570 C   0  0  0  0  0  0  0  0  0  0  0  0
   18.4240    7.4490  -24.3450 C   0  0  0  0  0  0  0  0  0  0  0  0
   22.0490   -0.5890  -20.9540 C   0  0  0  0  0  0  0  0  0  0  0  0
   19.6980    8.3340  -23.3400 S   0  0  0  0  0  0  0  0  0  0  0  0
   19.6120    1.7240  -25.1160 C   0  0  0  0  0  0  0  0  0  0  0  0
   18.7740    5.9520  -24.5610 C   0  0  0  0  0  0  0  0  0  0  0  0
   22.5090   -2.0460  -20.9820 C   0  0  0  0  0  0  0  0  0  0  0  0
   19.3290    3.2360  -24.9290 C   0  0  0  0  0  0  0  0  0  0  0  0
   21.2760   -0.0550  -22.1640 C   0  0  0  0  0  0  0  0  0  0  0  0
   19.5980    0.8970  -24.0650 N   0  0  0  0  0  0  0  0  0  0  0  0
  2  3  2  0
  2  4  1  0
  3  5  1  0
  4  6  2  0
  7  9  2  0
  8 10  1  0
 11 13  1  0
 12 14  1  0
 15 17  1  0
  1 18  2  0
  8 19  2  0
  7 19  1  0
 15 19  1  0
  6 20  1  0
  5 20  2  0
 16 20  1  0
 10 21  2  0
 18 21  1  0
  9 21  1  0
 12 22  1  0
 11 22  1  0
 16 22  1  0
 14 23  1  0
 18 23  1  0
 13 23  1  0
M  END
$$$$
