
     RDKit          3D

 32 36  0  0  0  0  0  0  0  0999 V2000
   -4.0760    2.9762    1.7179 C   0  0  0  0  0  0  0  0  0  0  0  0
   -3.2526    3.7830    2.5058 C   0  0  0  0  0  0  0  0  0  0  0  0
   -3.5544   -0.8068    1.4602 C   0  0  0  0  0  0  0  0  0  0  0  0
   -3.8070    2.8289    0.3556 C   0  0  0  0  0  0  0  0  0  0  0  0
   -3.1235   -0.8630    0.1355 C   0  0  0  0  0  0  0  0  0  0  0  0
    5.4757   -0.2648   -0.3575 C   0  0  0  0  0  0  0  0  0  0  0  0
    4.2542    0.3318   -0.7186 C   0  0  0  0  0  0  0  0  0  0  0  0
    1.5081    1.6492   -0.6623 C   0  0  0  0  0  0  0  0  0  0  0  0
    0.2916    2.2365   -1.0145 C   0  0  0  0  0  0  0  0  0  0  0  0
    6.4538   -2.3513    0.6495 C   0  0  0  0  0  0  0  0  0  0  0  0
   -2.1694    4.4351    1.9143 C   0  0  0  0  0  0  0  0  0  0  0  0
   -3.0802   -1.7470    2.3725 C   0  0  0  0  0  0  0  0  0  0  0  0
    5.8201   -3.4995    1.1147 C   0  0  0  0  0  0  0  0  0  0  0  0
    0.7314   -0.4739   -1.5163 C   0  0  0  0  0  0  0  0  0  0  0  0
    3.0301   -1.6370    0.0735 C   0  0  0  0  0  0  0  0  0  0  0  0
   -1.5633   -0.7750   -2.4873 C   0  0  0  0  0  0  0  0  0  0  0  0
   -2.3991    3.3622   -1.6662 C   0  0  0  0  0  0  0  0  0  0  0  0
    5.4366   -1.5340    0.2098 C   0  0  0  0  0  0  0  0  0  0  0  0
    1.7385    0.2869   -0.9033 C   0  0  0  0  0  0  0  0  0  0  0  0
    3.0223   -0.3464   -0.5097 C   0  0  0  0  0  0  0  0  0  0  0  0
   -0.5037    0.1007   -1.8586 C   0  0  0  0  0  0  0  0  0  0  0  0
   -2.7124    3.5012   -0.2055 C   0  0  0  0  0  0  0  0  0  0  0  0
   -2.2257   -1.8610   -0.2760 C   0  0  0  0  0  0  0  0  0  0  0  0
    4.2582   -2.1972    0.4183 C   0  0  0  0  0  0  0  0  0  0  0  0
   -0.7307    1.4708   -1.6085 C   0  0  0  0  0  0  0  0  0  0  0  0
   -1.7571   -2.7846    0.6863 C   0  0  0  0  0  0  0  0  0  0  0  0
   -0.7839   -3.7815    0.3585 N   0  0  0  0  0  0  0  0  0  0  0  0
   -1.9268    4.2849    0.5847 N   0  0  0  0  0  0  0  0  0  0  0  0
    4.4787   -3.4001    0.9724 N   0  0  0  0  0  0  0  0  0  0  0  0
   -2.1997   -2.7001    1.9711 N   0  0  0  0  0  0  0  0  0  0  0  0
   -1.8170   -1.9512   -1.6535 N   0  0  0  0  0  0  0  0  0  0  0  0
   -1.9696    2.0340   -1.9649 O   0  0  0  0  0  0  0  0  0  0  0  0
  1  2  2  0
  1  4  1  0
  2 11  1  0
  3  5  2  0
  3 12  1  0
  4 22  2  0
  5 23  1  0
  6  7  2  0
  6 18  1  0
  7 20  1  0
  8  9  2  0
  8 19  1  0
  9 25  1  0
 10 13  2  0
 10 18  1  0
 11 28  2  0
 12 30  2  0
 13 29  1  0
 14 19  2  0
 14 21  1  0
 15 20  2  0
 15 24  1  0
 16 21  1  0
 16 31  1  0
 17 22  1  0
 17 32  1  0
 18 24  2  0
 19 20  1  0
 21 25  2  0
 22 28  1  0
 23 26  2  0
 23 31  1  0
 24 29  1  0
 25 32  1  0
 26 27  1  0
 26 30  1  0
M  END
$$$$
