
     RDKit          3D

 27 29  0  0  0  0  0  0  0  0999 V2000
   -6.6487    0.3178   -0.7188 C   0  0  0  0  0  0  0  0  0  0  0  0
   -6.3786    0.8530    0.5441 C   0  0  0  0  0  0  0  0  0  0  0  0
   -5.7927   -0.6406   -1.2694 C   0  0  0  0  0  0  0  0  0  0  0  0
    3.0476   -1.8559   -0.2996 C   0  0  0  0  0  0  0  0  0  0  0  0
    4.3607   -1.7915    0.1702 C   0  0  0  0  0  0  0  0  0  0  0  0
    2.3946   -0.6975   -0.7261 C   0  0  0  0  0  0  0  0  0  0  0  0
   -5.2540    0.4287    1.2588 C   0  0  0  0  0  0  0  0  0  0  0  0
   -4.6675   -1.0671   -0.5568 C   0  0  0  0  0  0  0  0  0  0  0  0
    4.3745    0.6018   -0.2138 C   0  0  0  0  0  0  0  0  0  0  0  0
   -1.1985    0.3881    0.0270 C   0  0  0  0  0  0  0  0  0  0  0  0
   -1.0141    0.7823    2.3270 C   0  0  0  0  0  0  0  0  0  0  0  0
    5.0342   -0.5619    0.2145 C   0  0  0  0  0  0  0  0  0  0  0  0
    3.0506    0.5467   -0.6799 C   0  0  0  0  0  0  0  0  0  0  0  0
   -4.3972   -0.5387    0.7142 C   0  0  0  0  0  0  0  0  0  0  0  0
   -1.6682    0.0910    1.3123 C   0  0  0  0  0  0  0  0  0  0  0  0
   -0.1709    1.3178    0.0356 C   0  0  0  0  0  0  0  0  0  0  0  0
    6.5179   -0.4876    0.7419 B   0  0  0  0  0  0  0  0  0  0  0  0
    2.4061    1.7610   -1.1053 N   0  0  0  0  0  0  0  0  0  0  0  0
    7.2198    0.7937    0.7939 O   0  0  0  0  0  0  0  0  0  0  0  0
    7.2049   -1.6987    1.1869 O   0  0  0  0  0  0  0  0  0  0  0  0
   -3.2903   -1.1029    3.0718 O   0  0  0  0  0  0  0  0  0  0  0  0
   -2.5390   -2.4217    1.1612 O   0  0  0  0  0  0  0  0  0  0  0  0
    0.3456    3.3505   -1.5860 O   0  0  0  0  0  0  0  0  0  0  0  0
    0.3119    1.1215   -2.5925 O   0  0  0  0  0  0  0  0  0  0  0  0
    0.1566    1.7633    1.6215 S   0  0  0  0  0  0  0  0  0  0  0  0
   -2.9680   -1.0510    1.6042 S   0  0  0  0  0  6  0  0  0  0  0  0
    0.6974    1.9059   -1.3696 S   0  0  0  0  0  6  0  0  0  0  0  0
  1  2  2  0
  1  3  1  0
  2  7  1  0
  3  8  2  0
  4  5  2  0
  4  6  1  0
  5 12  1  0
  6 13  2  0
  7 14  2  0
  8 14  1  0
  9 12  2  0
  9 13  1  0
 10 15  1  0
 10 16  2  0
 11 15  2  0
 11 25  1  0
 12 17  1  0
 13 18  1  0
 14 26  1  0
 15 26  1  0
 16 25  1  0
 16 27  1  0
 17 19  1  0
 17 20  1  0
 18 27  1  0
 21 26  2  0
 22 26  2  0
 23 27  2  0
 24 27  2  0
M  END
$$$$
