1O35_802_A_246_
     RDKit          3D

 31 33  0  0  0  0  0  0  0  0999 V2000
   44.2855   -2.8427   26.6325 C   0  0  0  0  0  0  0  0  0  0  0  0
   44.7655   -1.5042   26.6084 C   0  0  0  0  0  0  0  0  0  0  0  0
   44.7680   -0.7238   27.7691 C   0  0  0  0  0  0  0  0  0  0  0  0
   44.2965   -1.2799   28.9400 C   0  0  0  0  0  0  0  0  0  0  0  0
   43.7573   -2.5146   28.9806 C   0  0  0  0  0  0  0  0  0  0  0  0
   43.7459   -3.3370   27.8327 C   0  0  0  0  0  0  0  0  0  0  0  0
   44.2938   -3.5949   25.4468 C   0  0  0  0  0  0  0  0  0  0  0  0
   44.1177   -4.8835   25.4762 N   0  0  0  0  0  0  0  0  0  0  0  0
   44.5313   -3.0535   24.2734 N   0  0  0  0  0  0  0  0  0  0  0  0
   44.1669   -0.7730   30.1275 N   0  0  0  0  0  0  0  0  0  0  0  0
   43.3702   -2.8326   30.2028 N   0  0  0  0  0  0  0  0  0  0  0  0
   43.6155   -1.7023   30.8608 C   0  0  0  0  0  0  0  0  0  0  0  0
   43.3373   -1.5233   32.2139 C   0  0  0  0  0  0  0  0  0  0  0  0
   42.9825   -2.5942   33.0403 C   0  0  0  0  0  0  0  0  0  0  0  0
   42.6931   -2.3671   34.3816 C   0  0  0  0  0  0  0  0  0  0  0  0
   42.3313   -3.3982   35.2241 F   0  0  0  0  0  0  0  0  0  0  0  0
   42.7406   -1.0822   34.8914 C   0  0  0  0  0  0  0  0  0  0  0  0
   43.0633   -0.0033   34.0650 C   0  0  0  0  0  0  0  0  0  0  0  0
   43.3687   -0.2294   32.7418 C   0  0  0  0  0  0  0  0  0  0  0  0
   43.6926    0.8364   31.9364 O   0  0  0  0  0  0  0  0  0  0  0  0
   45.1690   -1.0799   25.7063 H   0  0  0  0  0  0  0  0  0  0  0  0
   45.1690    0.2794   27.7714 H   0  0  0  0  0  0  0  0  0  0  0  0
   43.3460   -4.3354   27.8894 H   0  0  0  0  0  0  0  0  0  0  0  0
   43.9322   -5.3421   26.3417 H   0  0  0  0  0  0  0  0  0  0  0  0
   44.1192   -5.4076   24.6230 H   0  0  0  0  0  0  0  0  0  0  0  0
   44.6862   -2.0689   24.1833 H   0  0  0  0  0  0  0  0  0  0  0  0
   44.5340   -3.6247   23.4531 H   0  0  0  0  0  0  0  0  0  0  0  0
   44.4420    0.1211   30.4149 H   0  0  0  0  0  0  0  0  0  0  0  0
   42.9545   -3.6004   32.6501 H   0  0  0  0  0  0  0  0  0  0  0  0
   42.5036   -0.9172   35.9333 H   0  0  0  0  0  0  0  0  0  0  0  0
   43.1073    1.0019   34.4632 H   0  0  0  0  0  0  0  0  0  0  0  0
  1  2  2  0
  2  3  1  0
  3  4  2  0
  4  5  1  0
  1  6  1  0
  5  6  2  0
  1  7  1  0
  7  8  1  0
  7  9  2  0
  4 10  1  0
  5 11  1  0
 10 12  1  0
 11 12  2  0
 12 13  1  0
 13 14  2  0
 14 15  1  0
 15 16  1  0
 15 17  2  0
 17 18  1  0
 13 19  1  0
 18 19  2  0
 19 20  1  0
  2 21  1  0
  3 22  1  0
  6 23  1  0
  8 24  1  0
  8 25  1  0
  9 26  1  0
  9 27  1  0
 10 28  1  0
 14 29  1  0
 17 30  1  0
 18 31  1  0
M  CHG  2   9   1  20  -1
M  END
$$$$
