
     RDKit          3D

 20 22  0  0  0  0  0  0  0  0999 V2000
    3.1884    0.3440    1.0687 C   0  0  0  0  0  0  0  0  0  0  0  0
   -5.3882   -0.4528   -0.3798 C   0  0  0  0  0  0  0  0  0  0  0  0
    1.9104    0.3743    1.6580 C   0  0  0  0  0  0  0  0  0  0  0  0
   -4.8446    0.2482    0.6972 C   0  0  0  0  0  0  0  0  0  0  0  0
    2.1940   -0.1227   -1.1212 C   0  0  0  0  0  0  0  0  0  0  0  0
   -3.1612   -0.9185   -1.2032 C   0  0  0  0  0  0  0  0  0  0  0  0
    3.3436    0.0947   -0.3227 C   0  0  0  0  0  0  0  0  0  0  0  0
   -4.5481   -1.0355   -1.3286 C   0  0  0  0  0  0  0  0  0  0  0  0
   -2.5947   -0.2128   -0.1238 C   0  0  0  0  0  0  0  0  0  0  0  0
    0.8121    0.1533    0.8344 C   0  0  0  0  0  0  0  0  0  0  0  0
    0.9501   -0.0858   -0.4967 C   0  0  0  0  0  0  0  0  0  0  0  0
   -3.4539    0.3750    0.8331 C   0  0  0  0  0  0  0  0  0  0  0  0
    4.6986    0.0727   -0.9281 C   0  0  0  0  0  0  0  0  0  0  0  0
   -1.1181   -0.1059   -0.0003 C   0  0  0  0  0  0  0  0  0  0  0  0
   -5.0783   -1.7224   -2.3704 F   0  0  0  0  0  0  0  0  0  0  0  0
    4.9883   -0.7546   -1.8842 N   0  0  0  0  0  0  0  0  0  0  0  0
    5.7125    0.9638   -0.4561 N   0  0  0  0  0  0  0  0  0  0  0  0
   -0.4870    0.1468    1.1794 N   0  0  0  0  0  0  0  0  0  0  0  0
   -0.2596   -0.2524   -1.0445 N   0  0  0  0  0  0  0  0  0  0  0  0
   -2.9333    1.0945    1.9089 O   0  0  0  0  0  0  0  0  0  0  0  0
  1  3  2  0
  1  7  1  0
  2  4  2  0
  2  8  1  0
  3 10  1  0
  4 12  1  0
  5  7  2  0
  5 11  1  0
  6  8  2  0
  6  9  1  0
  7 13  1  0
  8 15  1  0
  9 12  2  0
  9 14  1  0
 10 11  2  0
 10 18  1  0
 11 19  1  0
 12 20  1  0
 13 16  2  3
 13 17  1  0
 14 18  2  0
 14 19  1  0
M  END
$$$$
