
     RDKit          3D

 17 17  0  0  0  0  0  0  0  0999 V2000
   -5.9002   -0.6781    0.0430 C   0  0  0  0  0  0  0  0  0  0  0  0
   -4.9668    0.4541   -0.3756 C   0  0  0  0  0  0  0  0  0  0  0  0
   -3.5036   -0.0022   -0.3655 C   0  0  0  0  0  0  0  0  0  0  0  0
    1.8214    0.4626   -0.7812 C   0  0  0  0  0  0  0  0  0  0  0  0
    1.6293   -0.4873    1.4389 C   0  0  0  0  0  0  0  0  0  0  0  0
    3.1736    0.1085   -0.8128 C   0  0  0  0  0  0  0  0  0  0  0  0
    2.9812   -0.8410    1.4040 C   0  0  0  0  0  0  0  0  0  0  0  0
   -2.5695    1.1367   -0.7862 C   0  0  0  0  0  0  0  0  0  0  0  0
    1.0303    0.1582    0.3420 C   0  0  0  0  0  0  0  0  0  0  0  0
    3.7567   -0.5528    0.2746 C   0  0  0  0  0  0  0  0  0  0  0  0
   -0.4040    0.5310    0.3964 C   0  0  0  0  0  0  0  0  0  0  0  0
    6.4031    0.3446    0.8230 N   0  0  0  0  0  0  0  0  0  0  0  0
   -1.1815    0.6789   -0.8041 N   0  0  0  0  0  0  0  0  0  0  0  0
   -0.9518    0.7082    1.5191 O   0  0  0  0  0  0  0  0  0  0  0  0
    5.7052   -2.1883    1.1000 O   0  0  0  0  0  0  0  0  0  0  0  0
    5.8732   -1.3086   -1.1730 O   0  0  0  0  0  0  0  0  0  0  0  0
    5.4635   -0.9822    0.2361 S   0  0  0  0  0  6  0  0  0  0  0  0
  1  2  1  0
  2  3  1  0
  3  8  1  0
  4  6  2  0
  4  9  1  0
  5  7  1  0
  5  9  2  0
  6 10  1  0
  7 10  2  0
  8 13  1  0
  9 11  1  0
 10 17  1  0
 11 13  1  0
 11 14  2  0
 12 17  1  0
 15 17  2  0
 16 17  2  0
M  END
$$$$
