3RYZ_RYZ_A_262_
     RDKit          3D

 24 24  0  0  0  0  0  0  0  0999 V2000
   15.1040    0.9880   16.8390 S   0  0  0  0  0  0  0  0  0  0  0  0
   18.5310    5.8400   13.5380 N   0  0  0  0  0  0  0  0  0  0  0  0
   16.4300    6.6550   13.5280 O   0  0  0  0  0  0  0  0  0  0  0  0
   16.7230    4.6060   14.6110 C   0  0  0  0  0  0  0  0  0  0  0  0
   17.0410    2.4570   15.8020 C   0  0  0  0  0  0  0  0  0  0  0  0
   17.5720    3.5920   15.0880 C   0  0  0  0  0  0  0  0  0  0  0  0
   15.6480    2.3260   16.0060 C   0  0  0  0  0  0  0  0  0  0  0  0
   15.3340    4.5110   14.8270 C   0  0  0  0  0  0  0  0  0  0  0  0
   14.7890    3.4040   15.5440 C   0  0  0  0  0  0  0  0  0  0  0  0
   17.2400    5.7600   13.8490 C   0  0  0  0  0  0  0  0  0  0  0  0
   20.3320    7.6460   14.7320 F   0  0  0  0  0  0  0  0  0  0  0  0
   19.1060    9.6650   12.1060 F   0  0  0  0  0  0  0  0  0  0  0  0
   21.0910   11.1990   13.0750 F   0  0  0  0  0  0  0  0  0  0  0  0
   18.5850    8.4970   14.5200 F   0  0  0  0  0  0  0  0  0  0  0  0
   21.0520    8.7730   12.2830 F   0  0  0  0  0  0  0  0  0  0  0  0
   20.9180   10.1310   14.9930 F   0  0  0  0  0  0  0  0  0  0  0  0
   19.2270   11.0340   14.2300 F   0  0  0  0  0  0  0  0  0  0  0  0
   19.0970    6.9690   12.7710 C   0  0  0  0  0  0  0  0  0  0  0  0
   13.6350    1.0140   16.7140 O   0  0  0  0  0  0  0  0  0  0  0  0
   19.5480    8.0920   13.7510 C   0  0  0  0  0  0  0  0  0  0  0  0
   15.6060    1.0450   18.1780 O   0  0  0  0  0  0  0  0  0  0  0  0
   20.0450    9.2570   12.9640 C   0  0  0  0  0  0  0  0  0  0  0  0
   15.7080   -0.3050   16.0840 N   0  0  0  0  0  0  0  0  0  0  0  0
   20.3610   10.4530   13.8530 C   0  0  0  0  0  0  0  0  0  0  0  0
  4  6  2  0
  5  6  1  0
  1  7  1  0
  5  7  2  0
  4  8  1  0
  7  9  1  0
  8  9  2  0
  2 10  1  0
  3 10  2  0
  4 10  1  0
  2 18  1  0
  1 19  2  0
 11 20  1  0
 14 20  1  0
 18 20  1  0
  1 21  2  0
 12 22  1  0
 15 22  1  0
 20 22  1  0
  1 23  1  0
 13 24  1  0
 16 24  1  0
 17 24  1  0
 22 24  1  0
M  END
$$$$
