
     RDKit          3D

 39 43  0  0  0  0  0  0  0  0999 V2000
   10.3343    1.7687    0.8742 C   0  0  0  0  0  0  0  0  0  0  0  0
    9.3462    0.7938    1.5163 C   0  0  0  0  0  0  0  0  0  0  0  0
   -4.3708   -2.2724    3.7019 C   0  0  0  0  0  0  0  0  0  0  0  0
   -6.0314    1.3671   -4.2389 C   0  0  0  0  0  0  0  0  0  0  0  0
   -3.1798   -2.4629    2.7597 C   0  0  0  0  0  0  0  0  0  0  0  0
   -5.3215   -1.1649    3.2063 C   0  0  0  0  0  0  0  0  0  0  0  0
   -5.8003    2.8134   -3.7601 C   0  0  0  0  0  0  0  0  0  0  0  0
   -6.2824    0.4205   -3.0638 C   0  0  0  0  0  0  0  0  0  0  0  0
    8.7221   -0.1362    0.4655 C   0  0  0  0  0  0  0  0  0  0  0  0
   -2.3180   -1.1896    2.6597 C   0  0  0  0  0  0  0  0  0  0  0  0
   -4.6187   -0.0645    2.3819 C   0  0  0  0  0  0  0  0  0  0  0  0
   -5.1933    2.8996   -2.3439 C   0  0  0  0  0  0  0  0  0  0  0  0
   -5.0684    0.3667   -2.1177 C   0  0  0  0  0  0  0  0  0  0  0  0
    2.5086   -2.1081   -0.4384 C   0  0  0  0  0  0  0  0  0  0  0  0
    2.9388    0.2325    0.0197 C   0  0  0  0  0  0  0  0  0  0  0  0
    1.6505   -1.7506   -1.4809 C   0  0  0  0  0  0  0  0  0  0  0  0
    2.0736    0.5903   -1.0196 C   0  0  0  0  0  0  0  0  0  0  0  0
   -2.4969    1.4065    2.2218 C   0  0  0  0  0  0  0  0  0  0  0  0
   -1.6153    1.3185    0.9495 C   0  0  0  0  0  0  0  0  0  0  0  0
   -3.5843    1.8900   -0.6545 C   0  0  0  0  0  0  0  0  0  0  0  0
    4.0787   -1.5038    1.4453 C   0  0  0  0  0  0  0  0  0  0  0  0
    0.4307   -0.0078   -2.8431 C   0  0  0  0  0  0  0  0  0  0  0  0
    6.5084   -0.6491    1.7009 C   0  0  0  0  0  0  0  0  0  0  0  0
   -3.1472    0.1191    2.8087 C   0  0  0  0  0  0  0  0  0  0  0  0
   -4.2716    1.7006   -2.0384 C   0  0  0  0  0  0  0  0  0  0  0  0
    3.1535   -1.1199    0.3239 C   0  0  0  0  0  0  0  0  0  0  0  0
    1.4267   -0.3979   -1.7797 C   0  0  0  0  0  0  0  0  0  0  0  0
    7.8286   -1.2100    1.1130 C   0  0  1  0  0  0  0  0  0  0  0  0
   -1.2697    1.3407   -1.5037 C   0  0  0  0  0  0  0  0  0  0  0  0
   -1.6988   -0.8402   -1.6790 C   0  0  0  0  0  0  0  0  0  0  0  0
    6.1206   -2.2719    0.1034 C   0  0  0  0  0  0  0  0  0  0  0  0
   -2.2937    1.0501   -0.4280 C   0  0  1  0  0  0  0  0  0  0  0  0
   -1.7465   -2.0539   -2.1238 N   0  0  0  0  0  0  0  0  0  0  0  0
    7.4063   -2.1847    0.1093 N   0  0  0  0  0  0  0  0  0  0  0  0
   -2.5293   -0.3820   -0.6237 N   0  0  0  0  0  0  0  0  0  0  0  0
    5.4724   -1.4054    1.0150 N   0  0  0  0  0  0  0  0  0  0  0  0
   -0.8910    0.1855   -2.2442 N   0  0  0  0  0  0  0  0  0  0  0  0
   -0.7946    2.4866   -1.7381 O   0  0  0  0  0  0  0  0  0  0  0  0
    5.4344   -3.1441   -0.7354 O   0  0  0  0  0  0  0  0  0  0  0  0
  1  2  1  0
  2  9  1  0
  3  5  1  0
  3  6  1  0
  4  7  1  0
  4  8  1  0
  5 10  1  0
  6 11  1  0
  7 12  1  0
  8 13  1  0
 28  9  1  6
 10 24  1  0
 11 24  1  0
 12 25  1  0
 13 25  1  0
 14 16  2  0
 14 26  1  0
 15 17  1  0
 15 26  2  0
 16 27  1  0
 17 27  2  0
 18 19  1  0
 18 24  1  0
 32 19  1  1
 20 25  1  0
 20 32  1  0
 21 26  1  0
 21 36  1  0
 22 27  1  0
 22 37  1  0
 23 28  1  0
 23 36  1  0
 28 34  1  0
 29 32  1  0
 29 37  1  0
 29 38  2  0
 30 33  2  3
 30 35  1  0
 30 37  1  0
 31 34  2  0
 31 36  1  0
 31 39  1  0
 32 35  1  0
M  END
$$$$
