
     RDKit          3D

 20 21  0  0  0  0  0  0  0  0999 V2000
    1.8424    2.0771   -0.4380 C   0  0  0  0  0  0  0  0  0  0  0  0
    1.3748    0.9650   -1.1471 C   0  0  0  0  0  0  0  0  0  0  0  0
   -1.1046    0.1830    1.5772 C   0  0  0  0  0  0  0  0  0  0  0  0
   -0.0864   -0.7664    1.4568 C   0  0  0  0  0  0  0  0  0  0  0  0
    3.0701    1.8698    0.1778 C   0  0  0  0  0  0  0  0  0  0  0  0
    2.0009   -1.4651   -1.7128 C   0  0  0  0  0  0  0  0  0  0  0  0
   -2.1448   -0.6781   -0.4347 C   0  0  0  0  0  0  0  0  0  0  0  0
    2.2349   -0.1248   -1.0842 C   0  0  0  0  0  0  0  0  0  0  0  0
   -2.1365    0.2332    0.6306 C   0  0  0  0  0  0  0  0  0  0  0  0
   -1.1254   -1.6274   -0.5573 C   0  0  0  0  0  0  0  0  0  0  0  0
   -0.0776   -1.6571    0.3768 C   0  0  0  0  0  0  0  0  0  0  0  0
    1.9243   -2.5558   -0.6725 C   0  0  0  0  0  0  0  0  0  0  0  0
   -1.1594   -2.5178   -1.5804 F   0  0  0  0  0  0  0  0  0  0  0  0
   -2.8587    2.9075   -0.0182 N   0  0  0  0  0  0  0  0  0  0  0  0
    0.9992   -2.5932    0.2465 N   0  0  0  0  0  0  0  0  0  0  0  0
    2.9009   -3.5478   -0.6868 O   0  0  0  0  0  0  0  0  0  0  0  0
   -3.6773    1.7422    2.2082 O   0  0  0  0  0  0  0  0  0  0  0  0
   -4.6548    0.9700    0.1062 O   0  0  0  0  0  0  0  0  0  0  0  0
    3.5725    0.2997   -0.1570 S   0  0  0  0  0  0  0  0  0  0  0  0
   -3.3923    1.4591    0.7598 S   0  0  0  0  0  6  0  0  0  0  0  0
  1  2  1  0
  1  5  2  0
  2  8  2  0
  3  4  2  0
  3  9  1  0
  4 11  1  0
  5 19  1  0
  6  8  1  0
  6 12  1  0
  7  9  2  0
  7 10  1  0
  8 19  1  0
  9 20  1  0
 10 11  2  0
 10 13  1  0
 11 15  1  0
 12 15  2  3
 12 16  1  0
 14 20  1  0
 17 20  2  0
 18 20  2  0
M  END
$$$$
