2WEO_FBW_A_1263_
     RDKit          3D

 11 11  0  0  0  0  0  0  0  0999 V2000
   17.0980    4.1509   14.4407 C   0  0  0  0  0  0  0  0  0  0  0  0
   15.7482    4.1466   14.7795 C   0  0  0  0  0  0  0  0  0  0  0  0
   15.1883    3.0700   15.4875 C   0  0  0  0  0  0  0  0  0  0  0  0
   15.9603    1.9589   15.8738 C   0  0  0  0  0  0  0  0  0  0  0  0
   17.3279    1.9932   15.5089 C   0  0  0  0  0  0  0  0  0  0  0  0
   17.8818    3.0677   14.7969 C   0  0  0  0  0  0  0  0  0  0  0  0
   15.2941    0.6985   16.7335 S   0  0  0  0  0  0  0  0  0  0  0  0
   15.8239   -0.6809   16.1101 N   0  0  0  0  0  0  0  0  0  0  0  0
   15.8246    0.8557   18.0513 O   0  0  0  0  0  0  0  0  0  0  0  0
   13.8595    0.8152   16.6034 O   0  0  0  0  0  0  0  0  0  0  0  0
   14.9565    5.2008   14.4384 F   0  0  0  0  0  0  0  0  0  0  0  0
  1  2  2  0
  2  3  1  0
  3  4  2  0
  4  5  1  0
  1  6  1  0
  5  6  2  0
  4  7  1  0
  7  8  1  0
  7  9  2  0
  7 10  2  0
  2 11  1  0
M  END
$$$$
