2HA4_ACH_A_545_
     RDKit          3D

 10  9  0  0  0  0  0  0  0  0999 V2000
   13.5804  -10.8740  -38.1277 N   0  0  0  0  0  0  0  0  0  0  0  0
   14.0084  -10.0034  -37.0289 C   0  0  0  0  0  0  0  0  0  0  0  0
   13.5814   -8.5571  -37.2606 C   0  0  0  0  0  0  0  0  0  0  0  0
   12.1615   -8.4846  -37.1133 O   0  0  0  0  0  0  0  0  0  0  0  0
   11.5168   -7.3722  -36.4415 C   0  0  0  0  0  0  0  0  0  0  0  0
   12.1836   -6.3865  -36.1900 O   0  0  0  0  0  0  0  0  0  0  0  0
   10.0666   -7.4695  -36.0943 C   0  0  0  0  0  0  0  0  0  0  0  0
   12.2876  -11.5033  -37.8105 C   0  0  0  0  0  0  0  0  0  0  0  0
   14.6230  -11.8909  -38.3198 C   0  0  0  0  0  0  0  0  0  0  0  0
   13.4250  -10.1107  -39.3691 C   0  0  0  0  0  0  0  0  0  0  0  0
  1  2  1  0
  2  3  1  0
  3  4  1  0
  4  5  1  0
  5  6  2  0
  5  7  1  0
  1  8  1  0
  1  9  1  0
  1 10  1  0
M  CHG  1   1   1
M  END
$$$$
