3RVI_RVI_A_402_
     RDKit          3D

 33 36  0  0  0  0  0  0  0  0999 V2000
   70.7030   49.9630   12.2580 C   0  0  0  0  0  0  0  0  0  0  0  0
   71.8210   49.1330   12.4580 C   0  0  0  0  0  0  0  0  0  0  0  0
   72.6050   49.2960   13.6000 C   0  0  0  0  0  0  0  0  0  0  0  0
   69.8760   49.8480   11.1380 C   0  0  0  0  0  0  0  0  0  0  0  0
   69.8670   50.8640   10.1790 C   0  0  0  0  0  0  0  0  0  0  0  0
   69.0360   48.7410   10.9820 C   0  0  0  0  0  0  0  0  0  0  0  0
   66.5510   47.4750    8.5460 C   0  0  0  0  0  0  0  0  0  0  0  0
   72.2230   48.0350   11.4560 C   0  0  0  0  0  0  0  0  0  0  0  0
   64.1780   46.6430    8.6500 C   0  0  0  0  0  0  0  0  0  0  0  0
   63.9470   47.1640   10.0750 C   0  0  0  0  0  0  0  0  0  0  0  0
   64.0420   50.0900   11.9950 C   0  0  0  0  0  0  0  0  0  0  0  0
   65.0240   52.3920   11.7360 C   0  0  0  0  0  0  0  0  0  0  0  0
   66.3000   50.5730   12.9870 C   0  0  0  0  0  0  0  0  0  0  0  0
   64.1700   51.2960   11.0610 C   0  0  0  0  0  0  0  0  0  0  0  0
   66.4070   51.8650   12.1630 C   0  0  0  0  0  0  0  0  0  0  0  0
   65.4380   49.5190   12.2690 C   0  0  0  0  0  0  0  0  0  0  0  0
   63.0750   49.0270   11.4460 C   0  0  0  0  0  0  0  0  0  0  0  0
   63.4440   48.3990   10.1540 N   0  0  0  0  0  0  0  0  0  0  0  0
   64.1940   46.4500   11.0510 O   0  0  0  0  0  0  0  0  0  0  0  0
   63.2510   45.4320    8.4160 C   0  0  0  0  0  0  0  0  0  0  0  0
   61.7750   45.8220    8.6220 C   0  0  0  0  0  0  0  0  0  0  0  0
   60.8400   44.6100    8.7090 C   0  0  0  0  0  0  0  0  0  0  0  0
   65.6480   46.2430    8.4160 C   0  0  0  0  0  0  0  0  0  0  0  0
   66.6030   48.5320    7.6260 C   0  0  0  0  0  0  0  0  0  0  0  0
   67.4210   49.5790    7.8270 N   0  0  0  0  0  0  0  0  0  0  0  0
   65.8520   48.5270    6.5290 N   0  0  0  0  0  0  0  0  0  0  0  0
   67.3720   47.5450    9.6750 C   0  0  0  0  0  0  0  0  0  0  0  0
   68.2120   48.6450    9.8580 C   0  0  0  0  0  0  0  0  0  0  0  0
   68.2140   49.6630    8.9050 C   0  0  0  0  0  0  0  0  0  0  0  0
   69.0390   50.7710    9.0650 C   0  0  0  0  0  0  0  0  0  0  0  0
   70.3920   50.9440   13.2040 C   0  0  0  0  0  0  0  0  0  0  0  0
   71.1790   51.1000   14.3400 C   0  0  0  0  0  0  0  0  0  0  0  0
   72.2850   50.2790   14.5350 C   0  0  0  0  0  0  0  0  0  0  0  0
  1  2  2  0
  2  3  1  0
  1  4  1  0
  4  5  2  0
  4  6  1  0
  2  8  1  0
  9 10  1  0
 11 14  1  0
 12 14  1  0
 12 15  1  0
 13 15  1  0
 11 16  1  0
 13 16  1  0
 11 17  1  0
 10 18  1  0
 17 18  1  0
 10 19  2  0
  9 20  1  0
 20 21  1  0
 21 22  1  0
  7 23  1  0
  9 23  1  0
  7 24  1  0
 24 25  2  0
 24 26  1  0
  7 27  2  0
  6 28  2  0
 27 28  1  0
 25 29  1  0
 28 29  1  0
  5 30  1  0
 29 30  2  0
  1 31  1  0
 31 32  2  0
  3 33  2  0
 32 33  1  0
M  END
$$$$
