3RU1_3RU_A_398_A
     RDKit          3D

 23 25  0  0  0  0  0  0  0  0999 V2000
   68.6135   49.0502   11.3111 C   0  0  0  0  0  0  0  0  0  0  0  0
   67.9389   48.9347   10.0998 C   0  0  0  0  0  0  0  0  0  0  0  0
   68.1441   49.8773    9.1019 C   0  0  0  0  0  0  0  0  0  0  0  0
   66.6485   48.7670    7.6847 C   0  0  0  0  0  0  0  0  0  0  0  0
   67.0590   47.8828    9.8775 C   0  0  0  0  0  0  0  0  0  0  0  0
   64.0100   47.1485    8.4627 C   0  0  0  0  0  0  0  0  0  0  0  0
   62.7152   48.9840   11.5353 C   0  0  0  0  0  0  0  0  0  0  0  0
   65.5114   50.8475   13.3808 C   0  0  0  0  0  0  0  0  0  0  0  0
   65.7063   52.0153   12.4126 C   0  0  0  0  0  0  0  0  0  0  0  0
   64.3819   52.4490   11.7945 C   0  0  0  0  0  0  0  0  0  0  0  0
   64.7971   49.6862   12.6937 C   0  0  0  0  0  0  0  0  0  0  0  0
   63.6486   51.2663   11.1493 C   0  0  0  0  0  0  0  0  0  0  0  0
   63.4424   50.1578   12.1734 C   0  0  0  0  0  0  0  0  0  0  0  0
   63.2209   48.6683   10.1922 N   0  0  0  0  0  0  0  0  0  0  0  0
   63.5334   47.4137    9.8948 C   0  0  0  0  0  0  0  0  0  0  0  0
   63.4484   46.4974   10.7059 O   0  0  0  0  0  0  0  0  0  0  0  0
   65.4445   46.6237    8.4515 C   0  0  0  0  0  0  0  0  0  0  0  0
   66.4030   47.7908    8.6534 C   0  0  0  0  0  0  0  0  0  0  0  0
   69.4911   50.1085   11.5196 C   0  0  0  0  0  0  0  0  0  0  0  0
   69.7003   51.0531   10.5247 C   0  0  0  0  0  0  0  0  0  0  0  0
   69.0228   50.9324    9.3173 C   0  0  0  0  0  0  0  0  0  0  0  0
   67.5032   49.7720    7.9292 N   0  0  0  0  0  0  0  0  0  0  0  0
   66.0360   48.6992    6.4995 N   0  0  0  0  0  0  0  0  0  0  0  0
  1  2  2  0
  2  3  1  0
  2  5  1  0
  8  9  1  0
  9 10  1  0
  8 11  1  0
 10 12  1  0
  7 13  1  0
 11 13  1  0
 12 13  1  0
  7 14  1  0
  6 15  1  0
 14 15  1  0
 15 16  2  0
  6 17  1  0
  4 18  1  0
  5 18  2  0
 17 18  1  0
  1 19  1  0
 19 20  2  0
  3 21  2  0
 20 21  1  0
  3 22  1  0
  4 22  2  0
  4 23  1  0
M  END
$$$$
