
     RDKit          3D

 19 22  0  0  0  0  0  0  0  0999 V2000
   -0.5142    2.9487    1.0459 C   0  0  0  0  0  0  0  0  0  0  0  0
   -1.6155   -0.5717    1.0134 C   0  0  0  0  0  0  0  0  0  0  0  0
   -1.9189    0.9389   -1.0045 C   0  0  0  0  0  0  0  0  0  0  0  0
    1.4777   -2.2922   -0.6333 C   0  0  0  0  0  0  0  0  0  0  0  0
   -3.1324   -0.7651    0.8049 C   0  0  0  0  0  0  0  0  0  0  0  0
   -3.1278    0.1063   -1.4893 C   0  0  0  0  0  0  0  0  0  0  0  0
    2.5510   -3.1689   -0.8008 C   0  0  0  0  0  0  0  0  0  0  0  0
    3.8703    0.8809    0.5021 C   0  0  0  0  0  0  0  0  0  0  0  0
    0.5454    1.9606    0.6698 C   0  0  0  0  0  0  0  0  0  0  0  0
   -0.9386    0.0460   -0.2249 C   0  0  0  0  0  0  0  0  0  0  0  0
    2.0341   -1.0746   -0.3051 C   0  0  0  0  0  0  0  0  0  0  0  0
    2.4852    1.1316    0.4676 C   0  0  0  0  0  0  0  0  0  0  0  0
    1.5729    0.1945    0.0553 C   0  0  0  0  0  0  0  0  0  0  0  0
    3.4553   -1.3099   -0.2705 C   0  0  0  0  0  0  0  0  0  0  0  0
   -3.4578   -1.0318   -0.6045 N   0  0  0  0  0  0  0  0  0  0  0  0
    3.7539   -2.5823   -0.5745 N   0  0  0  0  0  0  0  0  0  0  0  0
    4.3399   -0.3507    0.1232 N   0  0  0  0  0  0  0  0  0  0  0  0
    1.8588    2.2484    0.8632 N   0  0  0  0  0  0  0  0  0  0  0  0
    0.3274    0.7167    0.1346 N   0  0  0  0  0  0  0  0  0  0  0  0
  1  9  1  0
  2  5  1  0
  2 10  1  0
  3  6  1  0
  3 10  1  0
  4  7  2  0
  4 11  1  0
  5 15  1  0
  6 15  1  0
  7 16  1  0
  8 12  2  0
  8 17  1  0
  9 18  2  0
  9 19  1  0
 10 19  1  0
 11 13  2  0
 11 14  1  0
 12 13  1  0
 12 18  1  0
 13 19  1  0
 14 16  2  0
 14 17  1  0
M  END
$$$$
