4EHZ_JAK_B_1201_
     RDKit          3D

 19 22  0  0  0  0  0  0  0  0999 V2000
    9.8127   55.9851    0.2214 C   0  0  0  0  0  0  0  0  0  0  0  0
    8.6906   56.9947    0.3484 C   0  0  0  0  0  0  0  0  0  0  0  0
    8.7465   58.2172   -0.1017 N   0  0  0  0  0  0  0  0  0  0  0  0
    7.5786   58.8369    0.1775 C   0  0  0  0  0  0  0  0  0  0  0  0
    7.1153   60.1249   -0.0701 C   0  0  0  0  0  0  0  0  0  0  0  0
    5.9208   60.5001    0.3164 N   0  0  0  0  0  0  0  0  0  0  0  0
    5.0829   59.6927    0.9504 C   0  0  0  0  0  0  0  0  0  0  0  0
    5.4632   58.3686    1.2505 C   0  0  0  0  0  0  0  0  0  0  0  0
    6.7394   57.9160    0.8613 C   0  0  0  0  0  0  0  0  0  0  0  0
    7.4745   56.7496    0.9438 N   0  0  0  0  0  0  0  0  0  0  0  0
    7.1199   55.4590    1.5693 C   0  0  0  0  0  0  0  0  0  0  0  0
    6.8622   55.6362    3.0771 C   0  0  0  0  0  0  0  0  0  0  0  0
    6.6513   54.2536    3.7192 C   0  0  0  0  0  0  0  0  0  0  0  0
    5.5229   53.5889    3.0526 N   0  0  0  0  0  0  0  0  0  0  0  0
    5.7478   53.4062    1.6182 C   0  0  0  0  0  0  0  0  0  0  0  0
    5.9165   54.7635    0.9330 C   0  0  0  0  0  0  0  0  0  0  0  0
    4.3093   57.7865    1.9469 C   0  0  0  0  0  0  0  0  0  0  0  0
    3.3559   58.7437    2.0191 C   0  0  0  0  0  0  0  0  0  0  0  0
    3.8071   59.8932    1.4300 N   0  0  0  0  0  0  0  0  0  0  0  0
  1  2  1  0
  2  3  2  0
  3  4  1  0
  4  5  2  0
  5  6  1  0
  6  7  2  0
  7  8  1  0
  4  9  1  0
  8  9  2  0
  2 10  1  0
  9 10  1  0
 10 11  1  0
 11 12  1  0
 12 13  1  0
 13 14  1  0
 14 15  1  0
 11 16  1  0
 15 16  1  0
  8 17  1  0
 17 18  2  0
  7 19  1  0
 18 19  1  0
M  END
$$$$
