4FK6_0UJ_A_1201_
     RDKit          3D

 25 29  0  0  0  0  0  0  0  0999 V2000
    9.6870   55.9770    0.3100 C   0  0  0  0  0  0  0  0  0  0  0  0
    5.4370   54.9300    1.2690 C   0  0  0  0  0  0  0  0  0  0  0  0
    8.5470   56.9800    0.4140 C   0  0  0  0  0  0  0  0  0  0  0  0
    5.9420   55.5030    3.5830 C   0  0  0  0  0  0  0  0  0  0  0  0
    6.9140   55.3810    1.3970 C   0  0  0  0  0  0  0  0  0  0  0  0
    7.3020   55.1230    2.8940 C   0  0  0  0  0  0  0  0  0  0  0  0
    5.0850   54.4910    2.7340 C   0  0  0  0  0  0  0  0  0  0  0  0
   10.8900   56.5150   -0.3520 N   0  0  0  0  0  0  0  0  0  0  0  0
   11.7140   54.2480   -1.7760 C   0  0  0  0  0  0  0  0  0  0  0  0
   11.3130   56.0130   -1.8900 S   0  0  0  0  0  0  0  0  0  0  0  0
    7.2910   56.7280    0.9130 N   0  0  0  0  0  0  0  0  0  0  0  0
    7.3700   53.5630    3.0580 C   0  0  0  0  0  0  0  0  0  0  0  0
    5.8410   53.1370    2.9900 C   0  0  0  0  0  0  0  0  0  0  0  0
    6.5720   57.9230    0.8690 C   0  0  0  0  0  0  0  0  0  0  0  0
    5.2770   58.4160    1.2120 C   0  0  0  0  0  0  0  0  0  0  0  0
    4.0620   57.8610    1.8170 C   0  0  0  0  0  0  0  0  0  0  0  0
    3.1510   58.8490    1.9220 C   0  0  0  0  0  0  0  0  0  0  0  0
    3.6780   60.0110    1.4140 N   0  0  0  0  0  0  0  0  0  0  0  0
    4.9630   59.7830    0.9730 C   0  0  0  0  0  0  0  0  0  0  0  0
    5.8650   60.6010    0.4250 N   0  0  0  0  0  0  0  0  0  0  0  0
    7.0730   60.1980    0.1080 C   0  0  0  0  0  0  0  0  0  0  0  0
    7.4750   58.8650    0.3180 C   0  0  0  0  0  0  0  0  0  0  0  0
    8.6320   58.2230    0.0710 N   0  0  0  0  0  0  0  0  0  0  0  0
   12.4770   56.7780   -2.1570 O   0  0  0  0  0  0  0  0  0  0  0  0
   10.1400   56.1930   -2.6690 O   0  0  0  0  0  0  0  0  0  0  0  0
  1  3  1  0
  2  5  1  0
  5  6  1  0
  4  6  1  0
  2  7  1  0
  4  7  1  0
  1  8  1  0
  9 10  1  0
  8 10  1  0
  3 11  1  0
  5 11  1  0
  6 12  1  0
  7 13  1  0
 12 13  1  0
 11 14  1  0
 14 15  2  0
 15 16  1  0
 16 17  2  0
 17 18  1  0
 15 19  1  0
 18 19  1  0
 19 20  2  0
 20 21  1  0
 21 22  2  0
 14 22  1  0
 22 23  1  0
  3 23  2  0
 10 24  2  0
 10 25  2  0
M  END
$$$$
