
     RDKit          3D

 25 29  0  0  0  0  0  0  0  0999 V2000
    5.0687   -2.1524    0.3700 C   0  0  0  0  0  0  0  0  0  0  0  0
   -2.5180   -2.6946   -0.9636 C   0  0  0  0  0  0  0  0  0  0  0  0
   -2.9550   -1.2514   -1.2727 C   0  0  0  0  0  0  0  0  0  0  0  0
   -2.8824    2.3948    0.2624 C   0  0  0  0  0  0  0  0  0  0  0  0
   -3.5682    3.6094    0.3115 C   0  0  0  0  0  0  0  0  0  0  0  0
   -0.6943   -1.5194   -1.8799 C   0  0  0  0  0  0  0  0  0  0  0  0
   -0.6952   -1.8124    0.4986 C   0  0  0  0  0  0  0  0  0  0  0  0
    0.8478    4.1529    0.4955 C   0  0  0  0  0  0  0  0  0  0  0  0
    2.2761   -0.4839    0.1466 C   0  0  0  0  0  0  0  0  0  0  0  0
   -0.9910   -2.5599   -0.8207 C   0  0  1  0  0  0  0  0  0  0  0  0
   -1.6167   -0.4826   -1.2921 C   0  0  2  0  0  0  0  0  0  0  0  0
   -1.5457    2.7110    0.3646 C   0  0  0  0  0  0  0  0  0  0  0  0
    0.8286    2.7477    0.4047 C   0  0  0  0  0  0  0  0  0  0  0  0
   -1.0884   -0.3574    0.1584 C   0  0  2  0  0  0  0  0  0  0  0  0
    1.3403    0.6947    0.2244 C   0  0  0  0  0  0  0  0  0  0  0  0
   -0.3290    2.0202    0.3521 C   0  0  0  0  0  0  0  0  0  0  0  0
   -1.5094    4.1481    0.4604 C   0  0  0  0  0  0  0  0  0  0  0  0
   -2.7413    4.6792    0.4277 N   0  0  0  0  0  0  0  0  0  0  0  0
   -0.3380    4.8405    0.5245 N   0  0  0  0  0  0  0  0  0  0  0  0
    2.7403   -0.8484    1.4891 N   0  0  0  0  0  0  0  0  0  0  0  0
    1.8849    1.9351    0.3283 N   0  0  0  0  0  0  0  0  0  0  0  0
   -0.0432    0.6962    0.2650 N   0  0  0  0  0  0  0  0  0  0  0  0
    2.7785   -3.4450    0.9168 O   0  0  0  0  0  0  0  0  0  0  0  0
    4.1163   -2.6714    2.8147 O   0  0  0  0  0  0  0  0  0  0  0  0
    3.6477   -2.3300    1.4286 S   0  0  0  0  0  6  0  0  0  0  0  0
  1 25  1  0
  2  3  1  0
 10  2  1  1
 11  3  1  1
  4  5  2  0
  4 12  1  0
  5 18  1  0
  6 10  1  0
  6 11  1  0
  7 10  1  0
  7 14  1  0
  8 13  2  0
  8 19  1  0
  9 15  1  0
  9 20  1  0
 11 14  1  0
 12 16  2  0
 12 17  1  0
 13 16  1  0
 13 21  1  0
 14 22  1  6
 15 21  2  0
 15 22  1  0
 16 22  1  0
 17 18  2  0
 17 19  1  0
 20 25  1  0
 23 25  2  0
 24 25  2  0
M  END
$$$$
