
     RDKit          3D

 29 31  0  0  0  0  0  0  0  0999 V2000
   -6.4740    0.5109    0.5173 C   0  0  0  0  0  0  0  0  0  0  0  0
   -6.0962   -0.0914    1.8782 C   0  0  0  0  0  0  0  0  0  0  0  0
   -5.8347    1.8919    0.3017 C   0  0  0  0  0  0  0  0  0  0  0  0
   -4.6598   -0.6209    1.9359 C   0  0  0  0  0  0  0  0  0  0  0  0
   -0.1628   -3.5165   -0.6202 C   0  0  0  0  0  0  0  0  0  0  0  0
   -4.4538    1.8500   -0.3756 C   0  0  0  0  0  0  0  0  0  0  0  0
   -3.5928    0.4449    1.6309 C   0  0  0  0  0  0  0  0  0  0  0  0
    0.7336   -2.4757    0.0427 C   0  0  0  0  0  0  0  0  0  0  0  0
    4.8305    1.4208   -0.8567 C   0  0  0  0  0  0  0  0  0  0  0  0
    4.1960    0.6715    1.3574 C   0  0  0  0  0  0  0  0  0  0  0  0
    6.1141    0.9004   -0.6644 C   0  0  0  0  0  0  0  0  0  0  0  0
    5.4792    0.1516    1.5506 C   0  0  0  0  0  0  0  0  0  0  0  0
   -0.9061   -2.7820   -1.7268 C   0  0  0  0  0  0  0  0  0  0  0  0
    2.4781    1.8731   -0.0443 C   0  0  0  0  0  0  0  0  0  0  0  0
   -1.6993    1.0494   -1.5803 C   0  0  0  0  0  0  0  0  0  0  0  0
    3.8593    1.3026    0.1495 C   0  0  0  0  0  0  0  0  0  0  0  0
    6.4532    0.2612    0.5414 C   0  0  0  0  0  0  0  0  0  0  0  0
   -3.4675    0.7530    0.1205 C   0  0  0  0  0  0  0  0  0  0  0  0
    0.1144   -1.1170   -0.2968 C   0  0  1  0  0  0  0  0  0  0  0  0
   -1.6315   -0.3796   -2.0531 C   0  0  0  0  0  0  0  0  0  0  0  0
    7.8178   -0.2918    0.7370 C   0  0  0  0  0  0  0  0  0  0  0  0
    1.1771   -0.1229   -0.6738 C   0  0  0  0  0  0  0  0  0  0  0  0
    8.5208   -0.8806   -0.3612 N   0  0  0  0  0  0  0  0  0  0  0  0
    8.3977   -0.2437    1.8964 N   0  0  0  0  0  0  0  0  0  0  0  0
   -2.0660    1.1311   -0.1591 N   0  0  0  0  0  0  0  0  0  0  0  0
    1.4599    0.8434    0.1530 N   0  0  0  0  0  0  0  0  0  0  0  0
   -0.7974   -1.3673   -1.4096 N   0  0  0  0  0  0  0  0  0  0  0  0
   -2.3381   -0.7158   -3.0434 O   0  0  0  0  0  0  0  0  0  0  0  0
    1.8393   -0.2735   -1.8967 O   0  0  0  0  0  0  0  0  0  0  0  0
  1  2  1  0
  1  3  1  0
  2  4  1  0
  3  6  1  0
  4  7  1  0
  5  8  1  0
  5 13  1  0
  6 18  1  0
  7 18  1  0
 19  8  1  6
  9 11  2  0
  9 16  1  0
 10 12  1  0
 10 16  2  0
 11 17  1  0
 12 17  2  0
 13 27  1  0
 14 16  1  0
 14 26  1  0
 15 20  1  0
 15 25  1  0
 17 21  1  0
 18 25  1  0
 19 22  1  0
 19 27  1  0
 20 27  1  0
 20 28  2  0
 21 23  1  0
 21 24  2  3
 22 26  2  3
 22 29  1  0
M  END
$$$$
