
     RDKit          3D

  8  8  0  0  0  0  0  0  0  0999 V2000
   -1.6962    0.9217   -0.0761 C   0  0  0  0  0  0  0  0  0  0  0  0
   -1.8810   -0.5651    0.2500 C   0  0  0  0  0  0  0  0  0  0  0  0
   -0.3221    1.4780    0.3309 C   0  0  0  0  0  0  0  0  0  0  0  0
   -0.8371   -1.4776   -0.4127 C   0  0  0  0  0  0  0  0  0  0  0  0
    0.7914    1.0462   -0.6402 C   0  0  0  0  0  0  0  0  0  0  0  0
    0.5328   -1.3905    0.2812 C   0  0  0  0  0  0  0  0  0  0  0  0
    1.4686   -0.3079   -0.2986 C   0  0  0  0  0  0  0  0  0  0  0  0
    2.5993   -0.1150    0.6138 N   0  0  0  0  0  0  0  0  0  0  0  0
  1  2  1  0
  1  3  1  0
  2  4  1  0
  3  5  1  0
  4  6  1  0
  5  7  1  0
  6  7  1  0
  7  8  1  0
M  END
$$$$
