3ATK_SZ1_A_4_
     RDKit          3D

  8  8  0  0  0  0  0  0  0  0999 V2000
   19.7699   -0.7835   16.8013 N   0  0  0  0  0  0  0  0  0  0  0  0
   21.0202   -1.2761   16.2406 C   0  0  0  0  0  0  0  0  0  0  0  0
   20.9153   -1.3154   14.7152 C   0  0  0  0  0  0  0  0  0  0  0  0
   22.2568   -1.0672   14.0300 C   0  0  0  0  0  0  0  0  0  0  0  0
   23.1516   -2.2992   14.0299 C   0  0  0  0  0  0  0  0  0  0  0  0
   23.4350   -2.7794   15.4497 C   0  0  0  0  0  0  0  0  0  0  0  0
   22.2616   -3.5374   16.0516 C   0  0  0  0  0  0  0  0  0  0  0  0
   21.3273   -2.6415   16.8638 C   0  0  0  0  0  0  0  0  0  0  0  0
  1  2  1  0
  2  3  1  0
  3  4  1  0
  4  5  1  0
  5  6  1  0
  6  7  1  0
  2  8  1  0
  7  8  1  0
M  END
$$$$
