2HA3_CHT_A_952_
     RDKit          3D

  7  6  0  0  0  0  0  0  0  0999 V2000
   37.3519   24.5473    8.2559 C   0  0  0  0  0  0  0  0  0  0  0  0
   36.3995   24.4362    9.4464 C   0  0  0  0  0  0  0  0  0  0  0  0
   35.5100   22.2603    8.8375 C   0  0  0  0  0  0  0  0  0  0  0  0
   34.3043   23.6900   10.3226 C   0  0  0  0  0  0  0  0  0  0  0  0
   34.4564   24.2439    8.0127 C   0  0  0  0  0  0  0  0  0  0  0  0
   38.2577   25.6358    8.4737 O   0  0  0  0  0  0  0  0  0  0  0  0
   35.1817   23.6583    9.1459 N   0  0  0  0  0  0  0  0  0  0  0  0
  1  2  1  0
  1  6  1  0
  2  7  1  0
  3  7  1  0
  4  7  1  0
  5  7  1  0
M  CHG  1   7   1
M  END
$$$$
