2VTH_LZ2_A_1300_
     RDKit          3D

 15 16  0  0  0  0  0  0  0  0999 V2000
   26.2291    7.5319   59.9084 N   0  0  0  0  0  0  0  0  0  0  0  0
   26.0774    8.3280   61.2925 S   0  0  0  0  0  0  0  0  0  0  0  0
   26.7922    9.5700   61.1576 O   0  0  0  0  0  0  0  0  0  0  0  0
   24.6808    8.3540   61.6246 O   0  0  0  0  0  0  0  0  0  0  0  0
   26.8974    7.3982   62.5489 C   0  0  0  0  0  0  0  0  0  0  0  0
   27.8997    8.0317   63.2749 C   0  0  0  0  0  0  0  0  0  0  0  0
   28.5865    7.3491   64.2518 C   0  0  0  0  0  0  0  0  0  0  0  0
   28.2820    6.0258   64.5236 C   0  0  0  0  0  0  0  0  0  0  0  0
   27.2769    5.3561   63.8153 C   0  0  0  0  0  0  0  0  0  0  0  0
   26.9557    4.0089   64.0678 C   0  0  0  0  0  0  0  0  0  0  0  0
   27.6443    3.3463   65.0299 O   0  0  0  0  0  0  0  0  0  0  0  0
   25.9543    3.3773   63.3478 C   0  0  0  0  0  0  0  0  0  0  0  0
   25.2695    4.0631   62.3629 C   0  0  0  0  0  0  0  0  0  0  0  0
   25.5771    5.3824   62.0881 C   0  0  0  0  0  0  0  0  0  0  0  0
   26.5761    6.0560   62.8025 C   0  0  0  0  0  0  0  0  0  0  0  0
  1  2  1  0
  2  3  2  0
  2  4  2  0
  2  5  1  0
  5  6  2  0
  6  7  1  0
  7  8  2  0
  8  9  1  0
  9 10  1  0
 10 11  1  0
 10 12  2  0
 12 13  1  0
 13 14  2  0
  5 15  1  0
  9 15  2  0
 14 15  1  0
M  END
$$$$
