
     RDKit          3D

 15 16  0  0  0  0  0  0  0  0999 V2000
   -1.7345   -2.0927   -0.8651 C   0  0  0  0  0  0  0  0  0  0  0  0
    0.1448    2.2978    0.8197 C   0  0  0  0  0  0  0  0  0  0  0  0
   -1.1457    1.8143    0.6278 C   0  0  0  0  0  0  0  0  0  0  0  0
   -0.4447   -1.6089   -0.6669 C   0  0  0  0  0  0  0  0  0  0  0  0
   -2.8356   -1.2979   -0.5697 C   0  0  0  0  0  0  0  0  0  0  0  0
    1.2472    1.5018    0.5322 C   0  0  0  0  0  0  0  0  0  0  0  0
   -1.3613    0.5114    0.1353 C   0  0  0  0  0  0  0  0  0  0  0  0
   -0.2290   -0.3086   -0.1641 C   0  0  0  0  0  0  0  0  0  0  0  0
   -2.6714   -0.0034   -0.0724 C   0  0  0  0  0  0  0  0  0  0  0  0
    1.0841    0.1981    0.0455 C   0  0  0  0  0  0  0  0  0  0  0  0
    3.9727    0.1235    0.1134 N   0  0  0  0  0  0  0  0  0  0  0  0
   -3.8364    0.7224    0.1967 O   0  0  0  0  0  0  0  0  0  0  0  0
    2.5850   -1.1021   -1.7540 O   0  0  0  0  0  0  0  0  0  0  0  0
    2.5114   -2.0237    0.5233 O   0  0  0  0  0  0  0  0  0  0  0  0
    2.5406   -0.7603   -0.2910 S   0  0  0  0  0  6  0  0  0  0  0  0
  1  4  2  0
  1  5  1  0
  2  3  2  0
  2  6  1  0
  3  7  1  0
  4  8  1  0
  5  9  2  0
  6 10  2  0
  7  8  2  0
  7  9  1  0
  8 10  1  0
  9 12  1  0
 10 15  1  0
 11 15  1  0
 13 15  2  0
 14 15  2  0
M  END
$$$$
