3QCK_NX5_A_2001_
     RDKit          3D

 19 20  0  0  0  0  0  0  0  0999 V2000
   19.8868   30.1136   62.1413 C   0  0  0  0  0  0  0  0  0  0  0  0
   19.5289   29.7465   60.4421 S   0  0  0  0  0  0  0  0  0  0  0  0
   17.8197   29.1015   60.4763 C   0  0  0  0  0  0  0  0  0  0  0  0
   17.4632   28.5702   59.1091 C   0  0  0  0  0  0  0  0  0  0  0  0
   17.8225   27.2109   58.7688 C   0  0  0  0  0  0  0  0  0  0  0  0
   16.4423   29.0505   56.8879 C   0  0  0  0  0  0  0  0  0  0  0  0
   16.7948   29.4678   58.2031 C   0  0  0  0  0  0  0  0  0  0  0  0
   17.4650   26.7976   57.4625 C   0  0  0  0  0  0  0  0  0  0  0  0
   16.7787   27.6954   56.5716 C   0  0  0  0  0  0  0  0  0  0  0  0
   16.2714   27.0896   55.0543 Cl  0  0  0  0  0  0  0  0  0  0  0  0
   17.8071   25.1875   56.9212 Cl  0  0  0  0  0  0  0  0  0  0  0  0
   19.0519   29.6241   63.2159 C   0  0  0  0  0  0  0  0  0  0  0  0
   19.4613   29.9289   64.5591 C   0  0  0  0  0  0  0  0  0  0  0  0
   20.6596   30.7016   64.8097 C   0  0  0  0  0  0  0  0  0  0  0  0
   21.4905   31.1881   63.7431 C   0  0  0  0  0  0  0  0  0  0  0  0
   21.0669   30.8755   62.4029 C   0  0  0  0  0  0  0  0  0  0  0  0
   21.8726   31.3313   61.2993 C   0  0  0  0  0  0  0  0  0  0  0  0
   23.1053   31.1877   61.3886 O   0  0  0  0  0  0  0  0  0  0  0  0
   21.3339   31.8737   60.3183 O   0  0  0  0  0  0  0  0  0  0  0  0
  1  2  1  0
  2  3  1  0
  3  4  1  0
  4  5  2  0
  4  7  1  0
  6  7  2  0
  5  8  1  0
  6  9  1  0
  8  9  2  0
  9 10  1  0
  8 11  1  0
  1 12  2  0
 12 13  1  0
 13 14  2  0
 14 15  1  0
  1 16  1  0
 15 16  2  0
 16 17  1  0
 17 18  1  0
 17 19  2  0
M  END
$$$$
