
     RDKit          3D

 19 20  0  0  0  0  0  0  0  0999 V2000
    3.6831    1.6921   -1.8912 C   0  0  0  0  0  0  0  0  0  0  0  0
   -3.9626    1.5306    0.0197 C   0  0  0  0  0  0  0  0  0  0  0  0
   -4.5180   -0.6511   -0.8713 C   0  0  0  0  0  0  0  0  0  0  0  0
   -2.7093    1.0516    0.4140 C   0  0  0  0  0  0  0  0  0  0  0  0
   -3.2652   -1.1322   -0.4775 C   0  0  0  0  0  0  0  0  0  0  0  0
    3.2690   -1.3734    1.8134 C   0  0  0  0  0  0  0  0  0  0  0  0
    3.0583    0.5357   -1.1860 C   0  0  0  0  0  0  0  0  0  0  0  0
   -4.8649    0.6813   -0.6278 C   0  0  0  0  0  0  0  0  0  0  0  0
   -2.3420   -0.2782    0.1400 C   0  0  0  0  0  0  0  0  0  0  0  0
    2.5911   -0.5777    0.9212 C   0  0  0  0  0  0  0  0  0  0  0  0
    1.2507   -0.9030    1.0718 C   0  0  0  0  0  0  0  0  0  0  0  0
    0.0854   -0.2610    0.4409 C   0  0  0  0  0  0  0  0  0  0  0  0
   -6.0809    1.1458   -1.0070 F   0  0  0  0  0  0  0  0  0  0  0  0
    2.3696   -2.1609    2.4305 N   0  0  0  0  0  0  0  0  0  0  0  0
    3.1764    0.4445    0.1071 N   0  0  0  0  0  0  0  0  0  0  0  0
   -1.0867   -0.8118    0.5839 N   0  0  0  0  0  0  0  0  0  0  0  0
    1.1494   -1.8820    1.9949 N   0  0  0  0  0  0  0  0  0  0  0  0
    2.4075   -0.4430   -1.9423 O   0  0  0  0  0  0  0  0  0  0  0  0
    0.2663    0.9054   -0.3068 O   0  0  0  0  0  0  0  0  0  0  0  0
  1  7  1  0
  2  4  2  0
  2  8  1  0
  3  5  1  0
  3  8  2  0
  4  9  1  0
  5  9  2  0
  6 10  2  0
  6 14  1  0
  7 15  2  3
  7 18  1  0
  8 13  1  0
  9 16  1  0
 10 11  1  0
 10 15  1  0
 11 12  1  0
 11 17  2  0
 12 16  2  3
 12 19  1  0
 14 17  1  0
M  END
$$$$
