
     RDKit          3D

 11 11  0  0  0  0  0  0  0  0999 V2000
    1.2436   -1.1811   -0.5731 C   0  0  0  0  0  0  0  0  0  0  0  0
   -2.4629   -0.5005   -0.1087 C   0  0  0  0  0  0  0  0  0  0  0  0
   -0.9541   -0.4505    0.2049 C   0  0  2  0  0  0  0  0  0  0  0  0
    1.7986   -0.1311    0.4229 C   0  0  2  0  0  0  0  0  0  0  0  0
   -0.5030    0.9911    0.5641 C   0  0  2  0  0  0  0  0  0  0  0  0
    1.0246    1.1984    0.3472 C   0  0  2  0  0  0  0  0  0  0  0  0
   -0.1702   -0.9594   -0.9317 N   0  0  0  0  0  0  0  0  0  0  0  0
   -2.7694    0.2413   -1.2601 O   0  0  0  0  0  0  0  0  0  0  0  0
    3.1620    0.1014    0.1808 O   0  0  0  0  0  0  0  0  0  0  0  0
   -0.8352    1.2437    1.9064 O   0  0  0  0  0  0  0  0  0  0  0  0
    1.2841    1.8646   -0.8665 O   0  0  0  0  0  0  0  0  0  0  0  0
  1  4  1  0
  1  7  1  0
  3  2  1  6
  2  8  1  0
  3  5  1  0
  3  7  1  0
  4  6  1  0
  4  9  1  6
  5  6  1  0
  5 10  1  1
  6 11  1  6
M  END
$$$$
