3D52_GHR_A_1048_B
     RDKit          3D

 23 24  0  0  0  0  0  0  0  0999 V2000
   30.5980   65.1430   10.0330 C   0  0  0  0  0  0  0  0  0  0  0  0
   29.6260   65.8060    9.2940 N   0  0  0  0  0  0  0  0  0  0  0  0
   29.6950   65.9730    7.8240 C   0  0  0  0  0  0  0  0  0  0  0  0
   28.5110   65.3100    7.1290 C   0  0  0  0  0  0  0  0  0  0  0  0
   27.3290   65.7390    7.7610 O   0  0  0  0  0  0  0  0  0  0  0  0
   31.0410   65.5370    7.1970 C   0  0  0  0  0  0  0  0  0  0  0  0
   31.3380   66.4650    6.1820 O   0  0  0  0  0  0  0  0  0  0  0  0
   32.1680   65.4450    8.2060 C   0  0  0  0  0  0  0  0  0  0  0  0
   33.3090   64.9260    7.5660 O   0  0  0  0  0  0  0  0  0  0  0  0
   31.7360   64.4680    9.2740 C   0  0  0  0  0  0  0  0  0  0  0  0
   32.8110   64.1350   10.1190 O   0  0  0  0  0  0  0  0  0  0  0  0
   30.5870   65.0510   11.3190 N   0  0  0  0  0  0  0  0  0  0  0  0
   22.0600   67.7220   12.5320 Cl  0  0  0  0  0  0  0  0  0  0  0  0
   23.6830   67.1160   12.5800 C   0  0  0  0  0  0  0  0  0  0  0  0
   24.7030   67.8490   11.9970 C   0  0  0  0  0  0  0  0  0  0  0  0
   26.0040   67.3700   12.0410 C   0  0  0  0  0  0  0  0  0  0  0  0
   23.9750   65.9100   13.2000 C   0  0  0  0  0  0  0  0  0  0  0  0
   25.2770   65.4310   13.2510 C   0  0  0  0  0  0  0  0  0  0  0  0
   26.2870   66.1600   12.6540 C   0  0  0  0  0  0  0  0  0  0  0  0
   27.5420   65.7470   12.7110 N   0  0  0  0  0  0  0  0  0  0  0  0
   28.4510   66.0820   11.8100 C   0  0  0  0  0  0  0  0  0  0  0  0
   28.1540   66.7560   10.8310 O   0  0  0  0  0  0  0  0  0  0  0  0
   29.7160   65.6810   12.1440 O   0  0  0  0  0  0  0  0  0  0  0  0
  1  2  1  0
  2  3  1  0
  3  4  1  0
  4  5  1  0
  3  6  1  0
  6  7  1  0
  6  8  1  0
  8  9  1  0
  8 10  1  0
  1 10  1  0
 10 11  1  0
  1 12  2  3
 13 14  1  0
 14 15  2  0
 15 16  1  0
 14 17  1  0
 17 18  2  0
 16 19  2  0
 18 19  1  0
 19 20  1  0
 20 21  1  0
 21 22  2  0
 12 23  1  0
 21 23  1  0
M  END
$$$$
