1HXK_DMJ_A_1103_
     RDKit          3D

 11 11  0  0  0  0  0  0  0  0999 V2000
   31.2390   65.4527    7.4717 C   0  0  0  0  0  0  0  0  0  0  0  0
   31.3151   65.8971    6.1132 O   0  0  0  0  0  0  0  0  0  0  0  0
   32.5189   65.8107    8.2286 C   0  0  0  0  0  0  0  0  0  0  0  0
   33.6056   65.1388    7.5996 O   0  0  0  0  0  0  0  0  0  0  0  0
   32.4578   65.4448    9.7740 C   0  0  0  0  0  0  0  0  0  0  0  0
   32.6840   64.0569    9.9946 O   0  0  0  0  0  0  0  0  0  0  0  0
   31.1601   65.8754   10.4190 C   0  0  0  0  0  0  0  0  0  0  0  0
   29.9474   65.6486    9.5598 N   0  0  0  0  0  0  0  0  0  0  0  0
   30.0641   66.0858    8.1336 C   0  0  0  0  0  0  0  0  0  0  0  0
   28.7222   65.7657    7.4725 C   0  0  0  0  0  0  0  0  0  0  0  0
   27.5561   65.8547    8.2676 O   0  0  0  0  0  0  0  0  0  0  0  0
  1  2  1  0
  1  3  1  0
  3  4  1  0
  3  5  1  0
  5  6  1  0
  5  7  1  0
  7  8  1  0
  1  9  1  0
  8  9  1  0
  9 10  1  0
 10 11  1  0
M  END
$$$$
