1GI9_123_B_246_
     RDKit          3D

 35 37  0  0  0  0  0  0  0  0999 V2000
    9.0076    1.6940   24.7781 C   0  0  0  0  0  0  0  0  0  0  0  0
    9.7916    1.5015   23.6155 C   0  0  0  0  0  0  0  0  0  0  0  0
   10.4055    2.5625   22.9527 C   0  0  0  0  0  0  0  0  0  0  0  0
   10.2108    3.8205   23.4770 C   0  0  0  0  0  0  0  0  0  0  0  0
    9.4788    4.0551   24.5874 C   0  0  0  0  0  0  0  0  0  0  0  0
    8.8657    3.0161   25.2526 C   0  0  0  0  0  0  0  0  0  0  0  0
    8.3967    0.6331   25.4409 C   0  0  0  0  0  0  0  0  0  0  0  0
    7.8446    0.8540   26.6023 N   0  0  0  0  0  0  0  0  0  0  0  0
    8.3572   -0.5725   24.9291 N   0  0  0  0  0  0  0  0  0  0  0  0
   10.6298    4.9728   23.1067 N   0  0  0  0  0  0  0  0  0  0  0  0
    9.4248    5.3241   24.9086 N   0  0  0  0  0  0  0  0  0  0  0  0
   10.1642    5.8664   23.9409 C   0  0  0  0  0  0  0  0  0  0  0  0
   10.4361    7.2297   23.7812 C   0  0  0  0  0  0  0  0  0  0  0  0
   10.1224    8.1990   24.7561 C   0  0  0  0  0  0  0  0  0  0  0  0
   10.4069    9.5628   24.5703 C   0  0  0  0  0  0  0  0  0  0  0  0
   10.1237   10.5407   25.5208 O   0  0  0  0  0  0  0  0  0  0  0  0
    9.8974   10.1477   26.8678 C   0  0  0  0  0  0  0  0  0  0  0  0
   11.0137    9.9587   23.3803 C   0  0  0  0  0  0  0  0  0  0  0  0
   11.3322    9.0284   22.4049 C   0  0  0  0  0  0  0  0  0  0  0  0
   11.0467    7.6845   22.6001 C   0  0  0  0  0  0  0  0  0  0  0  0
   11.3755    6.7947   21.5981 O   0  0  0  0  0  0  0  0  0  0  0  0
    9.9256    0.5053   23.2181 H   0  0  0  0  0  0  0  0  0  0  0  0
   11.0025    2.4107   22.0647 H   0  0  0  0  0  0  0  0  0  0  0  0
    8.2842    3.2252   26.1302 H   0  0  0  0  0  0  0  0  0  0  0  0
    7.8728    1.7596   27.0417 H   0  0  0  0  0  0  0  0  0  0  0  0
    7.4145    0.1192   27.1331 H   0  0  0  0  0  0  0  0  0  0  0  0
    8.7491   -0.7693   24.0197 H   0  0  0  0  0  0  0  0  0  0  0  0
    7.9319   -1.3279   25.4325 H   0  0  0  0  0  0  0  0  0  0  0  0
   11.1963    5.1901   22.3338 H   0  0  0  0  0  0  0  0  0  0  0  0
    9.6508    7.8791   25.6730 H   0  0  0  0  0  0  0  0  0  0  0  0
   10.2730   10.9140   27.5266 H   0  0  0  0  0  0  0  0  0  0  0  0
    8.8395   10.0010   27.0124 H   0  0  0  0  0  0  0  0  0  0  0  0
   10.4027    9.2234   27.0798 H   0  0  0  0  0  0  0  0  0  0  0  0
   11.2395   10.9997   23.2135 H   0  0  0  0  0  0  0  0  0  0  0  0
   11.8068    9.3503   21.4900 H   0  0  0  0  0  0  0  0  0  0  0  0
  1  2  2  0
  2  3  1  0
  3  4  2  0
  4  5  1  0
  1  6  1  0
  5  6  2  0
  1  7  1  0
  7  8  1  0
  7  9  2  0
  4 10  1  0
  5 11  1  0
 10 12  1  0
 11 12  2  0
 12 13  1  0
 13 14  2  0
 14 15  1  0
 15 16  1  0
 16 17  1  0
 15 18  2  0
 18 19  1  0
 13 20  1  0
 19 20  2  0
 20 21  1  0
  2 22  1  0
  3 23  1  0
  6 24  1  0
  8 25  1  0
  8 26  1  0
  9 27  1  0
  9 28  1  0
 10 29  1  0
 14 30  1  0
 17 31  1  0
 17 32  1  0
 17 33  1  0
 18 34  1  0
 19 35  1  0
M  CHG  1   9   1
M  END
$$$$
