3IVH_1LI_A_1_
     RDKit          3D

 34 36  0  0  0  0  0  0  0  0999 V2000
   24.0397   12.8090   22.9406 C   0  0  0  0  0  0  0  0  0  0  0  0
   22.3489    9.9666   23.9529 C   0  0  0  0  0  0  0  0  0  0  0  0
   23.4116    9.6295   21.6474 C   0  0  0  0  0  0  0  0  0  0  0  0
   25.4546   10.1424   20.2367 C   0  0  0  0  0  0  0  0  0  0  0  0
   24.0589   12.0366   18.7647 C   0  0  0  0  0  0  0  0  0  0  0  0
   22.0002   11.0188   25.0226 C   0  0  0  0  0  0  0  0  0  0  0  0
   20.3275   11.3938   26.9163 C   0  0  0  0  0  0  0  0  0  0  0  0
   21.2918   12.4234   27.5212 C   0  0  0  0  0  0  0  0  0  0  0  0
   20.7404   13.2168   28.7121 C   0  0  0  0  0  0  0  0  0  0  0  0
   19.2058   11.9575   26.0561 C   0  0  0  0  0  0  0  0  0  0  0  0
   17.1216   12.9181   24.4332 C   0  0  0  0  0  0  0  0  0  0  0  0
   18.2458   11.0917   25.5320 C   0  0  0  0  0  0  0  0  0  0  0  0
   23.3840   12.9516   18.0657 F   0  0  0  0  0  0  0  0  0  0  0  0
   23.4154   11.3292   19.7795 C   0  0  0  0  0  0  0  0  0  0  0  0
   25.3958   11.7950   18.4809 C   0  0  0  0  0  0  0  0  0  0  0  0
   26.0899   10.8389   19.2118 C   0  0  0  0  0  0  0  0  0  0  0  0
   27.3945   10.6164   18.9524 F   0  0  0  0  0  0  0  0  0  0  0  0
   24.1114   10.3778   20.5239 C   0  0  0  0  0  0  0  0  0  0  0  0
   22.9293   10.6292   22.6987 C   0  0  0  0  0  0  0  0  0  0  0  0
   24.0511   11.4800   23.0814 N   0  0  0  0  0  0  0  0  0  0  0  0
   23.0631   13.4076   22.5535 O   0  0  0  0  0  0  0  0  0  0  0  0
   25.3018   13.5404   23.2905 C   0  0  0  0  0  0  0  0  0  0  0  0
   21.1930    9.2266   23.6184 O   0  0  0  0  0  0  0  0  0  0  0  0
   21.1291   10.5029   26.0685 N   0  0  0  0  0  0  0  0  0  0  0  0
   20.0687   12.3264   29.7560 C   0  0  0  0  0  0  0  0  0  0  0  0
   19.0476   11.4089   29.0972 C   0  0  0  0  0  0  0  0  0  0  0  0
   19.7377   10.5501   28.0422 C   0  0  0  0  0  0  0  0  0  0  0  0
   19.1018   13.3151   25.7487 C   0  0  0  0  0  0  0  0  0  0  0  0
   17.1870   11.5494   24.7266 C   0  0  0  0  0  0  0  0  0  0  0  0
   18.0622   13.7873   24.9436 C   0  0  0  0  0  0  0  0  0  0  0  0
   16.1753   10.5719   24.1631 C   0  0  0  0  0  0  0  0  0  0  0  0
   15.8613    9.4608   25.1641 C   0  0  0  0  0  0  0  0  0  0  0  0
   14.8409   11.2445   23.8309 C   0  0  0  0  0  0  0  0  0  0  0  0
   16.7814    9.9614   22.9017 C   0  0  0  0  0  0  0  0  0  0  0  0
  2  6  1  0
  7  8  1  0
  8  9  1  0
  7 10  1  0
 10 12  2  0
  5 13  1  0
  5 14  1  0
  5 15  2  0
  4 16  2  0
 15 16  1  0
 16 17  1  0
  3 18  1  0
  4 18  1  0
 14 18  2  0
  2 19  1  0
  3 19  1  0
  1 20  1  0
 19 20  1  0
  1 21  2  0
  1 22  1  0
  2 23  1  0
  6 24  1  0
  7 24  1  0
  9 25  1  0
 25 26  1  0
  7 27  1  0
 26 27  1  0
 10 28  1  0
 11 29  2  0
 12 29  1  0
 11 30  1  0
 28 30  2  0
 29 31  1  0
 31 32  1  0
 31 33  1  0
 31 34  1  0
M  END
$$$$
