3LNK_74A_A_1_
     RDKit          3D

 45 48  0  0  0  0  0  0  0  0999 V2000
   18.4900   13.3590   25.2480 C   0  0  0  0  0  0  0  0  0  0  0  0
   26.8380   10.8410   18.9120 F   0  0  0  0  0  0  0  0  0  0  0  0
   18.9890   12.1110   25.4530 N   0  0  0  0  0  0  0  0  0  0  0  0
   18.7770   14.0810   24.2960 O   0  0  0  0  0  0  0  0  0  0  0  0
   26.8970   14.3080   23.5050 C   0  0  0  0  0  0  0  0  0  0  0  0
   22.9970   13.3960   18.3660 F   0  0  0  0  0  0  0  0  0  0  0  0
   23.5040   11.7310   23.2950 N   0  0  0  0  0  0  0  0  0  0  0  0
   29.0280   13.7420   24.1420 O   0  0  0  0  0  0  0  0  0  0  0  0
   28.2720   13.8600   23.1470 C   0  0  0  0  0  0  0  0  0  0  0  0
   20.8220    9.9890   26.3000 N   0  0  0  0  0  0  0  0  0  0  0  0
   22.2150   13.5840   23.2130 O   0  0  0  0  0  0  0  0  0  0  0  0
   23.3010   13.0360   23.3900 C   0  0  0  0  0  0  0  0  0  0  0  0
   28.6280   13.5430   21.8730 N   0  0  0  0  0  0  0  0  0  0  0  0
   20.9410    8.9940   23.6350 O   0  0  0  0  0  0  0  0  0  0  0  0
   21.1780   10.8440   25.1400 C   0  0  0  0  0  0  0  0  0  0  0  0
   22.4520   10.7620   22.9250 C   0  0  0  0  0  0  0  0  0  0  0  0
   24.4740   13.8830   23.7000 C   0  0  0  0  0  0  0  0  0  0  0  0
   21.9070    9.9500   24.1180 C   0  0  0  0  0  0  0  0  0  0  0  0
   19.9420   11.5450   24.4770 C   0  0  0  0  0  0  0  0  0  0  0  0
   25.7670   13.4920   23.2220 C   0  0  0  0  0  0  0  0  0  0  0  0
   23.6990   10.6490   20.6760 C   0  0  0  0  0  0  0  0  0  0  0  0
   23.0310    9.8550   21.8090 C   0  0  0  0  0  0  0  0  0  0  0  0
   26.7270   15.5280   24.2230 C   0  0  0  0  0  0  0  0  0  0  0  0
   24.3090   15.1110   24.4430 C   0  0  0  0  0  0  0  0  0  0  0  0
   17.5390   13.9210   26.2380 C   0  0  0  0  0  0  0  0  0  0  0  0
   24.9680   12.1010   18.5590 C   0  0  0  0  0  0  0  0  0  0  0  0
   25.6270   11.0870   19.2590 C   0  0  0  0  0  0  0  0  0  0  0  0
   23.6460   12.4000   18.9710 C   0  0  0  0  0  0  0  0  0  0  0  0
   25.4670   15.9380   24.6970 C   0  0  0  0  0  0  0  0  0  0  0  0
   25.0450   10.3560   20.3280 C   0  0  0  0  0  0  0  0  0  0  0  0
   22.9880   11.6850   19.9960 C   0  0  0  0  0  0  0  0  0  0  0  0
   18.6520   11.1650   26.5710 C   0  0  0  0  0  0  0  0  0  0  0  0
   19.9690   10.6970   27.2830 C   0  0  0  0  0  0  0  0  0  0  0  0
   29.9450   12.9110   21.6220 C   0  0  0  0  0  0  0  0  0  0  0  0
   27.7720   13.9130   20.6930 C   0  0  0  0  0  0  0  0  0  0  0  0
   18.0740   14.6240   27.3720 C   0  0  0  0  0  0  0  0  0  0  0  0
   16.1270   13.7510   26.0570 C   0  0  0  0  0  0  0  0  0  0  0  0
   25.3310   17.2760   25.4790 C   0  0  0  0  0  0  0  0  0  0  0  0
   29.8600   11.4460   21.1230 C   0  0  0  0  0  0  0  0  0  0  0  0
   28.4620   14.9440   19.7640 C   0  0  0  0  0  0  0  0  0  0  0  0
   28.9420   10.5950   22.0150 C   0  0  0  0  0  0  0  0  0  0  0  0
   28.9060   16.2260   20.5150 C   0  0  0  0  0  0  0  0  0  0  0  0
   15.2220   14.2920   27.0130 C   0  0  0  0  0  0  0  0  0  0  0  0
   17.1700   15.1640   28.3300 C   0  0  0  0  0  0  0  0  0  0  0  0
   15.7550   14.9850   28.1420 C   0  0  0  0  0  0  0  0  0  0  0  0
  1  3  1  0
  1  4  2  0
  5  9  1  0
  8  9  2  0
  7 12  1  0
 11 12  2  0
  9 13  1  0
 10 15  1  0
  7 16  1  0
 12 17  1  0
 14 18  1  0
 15 18  1  0
 16 18  1  0
  3 19  1  0
 15 19  1  0
  5 20  2  0
 17 20  1  0
 16 22  1  0
 21 22  1  0
  5 23  1  0
 17 24  2  0
  1 25  1  0
  2 27  1  0
 26 27  2  0
  6 28  1  0
 26 28  1  0
 23 29  2  0
 24 29  1  0
 21 30  2  0
 27 30  1  0
 21 31  1  0
 28 31  2  0
  3 32  1  0
 10 33  1  0
 32 33  1  0
 13 34  1  0
 13 35  1  0
 25 36  2  0
 25 37  1  0
 29 38  1  0
 34 39  1  0
 35 40  1  0
 39 41  1  0
 40 42  1  0
 37 43  2  0
 36 44  1  0
 43 45  1  0
 44 45  2  0
M  END
$$$$
