
     RDKit          3D

 18 19  0  0  0  0  0  0  0  0999 V2000
    1.2880   -1.3418    0.9875 C   0  0  0  0  0  0  0  0  0  0  0  0
   -4.8771   -0.2918   -0.2130 C   0  0  0  0  0  0  0  0  0  0  0  0
    0.5574    0.0134    1.0969 C   0  0  0  0  0  0  0  0  0  0  0  0
   -4.3549    1.0128    0.3899 C   0  0  0  0  0  0  0  0  0  0  0  0
    2.4709   -1.3474    0.0053 C   0  0  0  0  0  0  0  0  0  0  0  0
   -3.6602   -0.9749   -0.8287 C   0  0  0  0  0  0  0  0  0  0  0  0
   -0.1288    0.4904   -0.2003 C   0  0  1  0  0  0  0  0  0  0  0  0
   -2.8787    0.7490    0.6837 C   0  0  2  0  0  0  0  0  0  0  0  0
   -1.9887    1.9503    0.4557 C   0  0  0  0  0  0  0  0  0  0  0  0
   -1.1665   -0.4919   -0.6734 C   0  0  0  0  0  0  0  0  0  0  0  0
    4.7439   -0.2205   -0.3238 C   0  0  0  0  0  0  0  0  0  0  0  0
    4.9618   -0.8376   -1.4481 N   0  0  0  0  0  4  0  0  0  0  0  0
    5.7115    0.7113    0.1682 N   0  0  0  0  0  0  0  0  0  0  0  0
    3.5498   -0.4581    0.4440 N   0  0  0  0  0  0  0  0  0  0  0  0
   -0.7611    1.7955    0.0409 N   0  0  0  0  0  0  0  0  0  0  0  0
   -2.5127   -0.3331   -0.2146 N   0  0  0  0  0  0  0  0  0  0  0  0
   -2.4701    3.2302    0.7187 O   0  0  0  0  0  0  0  0  0  0  0  0
   -0.8606   -1.4239   -1.4652 O   0  0  0  0  0  0  0  0  0  0  0  0
  1  3  1  0
  1  5  1  0
  2  4  1  0
  2  6  1  0
  7  3  1  1
  8  4  1  6
  5 14  1  0
  6 16  1  0
  7 10  1  0
  7 15  1  0
  8  9  1  0
  8 16  1  0
  9 15  2  0
  9 17  1  0
 10 16  1  0
 10 18  2  0
 11 12  2  0
 11 13  1  0
 11 14  1  0
M  CHG  1  12   1
M  END
$$$$
