2XM8_B4W_A_1504_
     RDKit          3D

 23 26  0  0  0  0  0  0  0  0999 V2000
   -6.3447   48.9227    7.6579 C   0  0  0  0  0  0  0  0  0  0  0  0
   -5.5587   49.2583    8.7245 C   0  0  0  0  0  0  0  0  0  0  0  0
   -6.1407   49.6404    9.9360 C   0  0  0  0  0  0  0  0  0  0  0  0
   -7.5973   49.6785   10.0596 C   0  0  0  0  0  0  0  0  0  0  0  0
   -8.4117   49.3359    8.9718 C   0  0  0  0  0  0  0  0  0  0  0  0
   -7.8463   48.9618    7.7846 C   0  0  0  0  0  0  0  0  0  0  0  0
   -8.6921   48.6126    6.6696 C   0  0  0  0  0  0  0  0  0  0  0  0
  -10.6322   49.0198    7.9622 C   0  0  0  0  0  0  0  0  0  0  0  0
  -12.1370   49.0539    8.0677 C   0  0  0  0  0  0  0  0  0  0  0  0
  -12.8219   49.5950    9.2759 C   0  0  0  0  0  0  0  0  0  0  0  0
  -14.1994   49.6147    9.3388 C   0  0  0  0  0  0  0  0  0  0  0  0
  -14.9620   49.1339    8.2671 C   0  0  0  0  0  0  0  0  0  0  0  0
  -14.3048   48.6204    7.1079 C   0  0  0  0  0  0  0  0  0  0  0  0
  -12.8715   48.5963    7.0388 C   0  0  0  0  0  0  0  0  0  0  0  0
   -7.9343   47.2802    4.2724 C   0  0  0  0  0  0  0  0  0  0  0  0
   -7.7860   45.7630    4.4944 C   0  0  0  0  0  0  0  0  0  0  0  0
   -7.0753   46.3319    2.2642 C   0  0  0  0  0  0  0  0  0  0  0  0
   -6.9333   47.5638    3.1557 C   0  0  0  0  0  0  0  0  0  0  0  0
   -9.7671   49.3753    9.1015 N   0  0  0  0  0  0  0  0  0  0  0  0
  -10.0731   48.6587    6.8115 N   0  0  0  0  0  0  0  0  0  0  0  0
   -8.1713   48.1858    5.3865 N   0  0  0  0  0  0  0  0  0  0  0  0
   -7.5871   45.2178    3.1230 N   0  0  0  0  0  0  0  0  0  0  0  0
  -12.0845   50.0713   10.3374 O   0  0  0  0  0  0  0  0  0  0  0  0
  1  2  2  0
  2  3  1  0
  3  4  2  0
  4  5  1  0
  1  6  1  0
  5  6  2  0
  6  7  1  0
  8  9  1  0
  9 10  2  0
 10 11  1  0
 11 12  2  0
 12 13  1  0
  9 14  1  0
 13 14  2  0
 15 16  1  0
 15 18  1  0
 17 18  1  0
  5 19  1  0
  8 19  2  0
  7 20  2  0
  8 20  1  0
  7 21  1  0
 15 21  1  0
 16 22  1  0
 17 22  1  0
 10 23  1  0
M  END
$$$$
