
     RDKit          3D

 15 15  0  0  0  0  0  0  0  0999 V2000
   -4.8079   -0.2935    0.1132 C   0  0  0  0  0  0  0  0  0  0  0  0
   -3.9544    0.7877    0.7669 C   0  0  0  0  0  0  0  0  0  0  0  0
    0.3910    0.9937   -0.1282 C   0  0  0  0  0  0  0  0  0  0  0  0
    0.5396   -1.3945    0.2494 C   0  0  0  0  0  0  0  0  0  0  0  0
    1.7259    1.0086   -0.5436 C   0  0  0  0  0  0  0  0  0  0  0  0
    1.8737   -1.3767   -0.1676 C   0  0  0  0  0  0  0  0  0  0  0  0
   -0.2212   -0.2115    0.2628 C   0  0  0  0  0  0  0  0  0  0  0  0
    2.4698   -0.1772   -0.5744 C   0  0  0  0  0  0  0  0  0  0  0  0
   -1.6340   -0.2461    0.7124 C   0  0  0  0  0  0  0  0  0  0  0  0
    5.1691    0.0655    0.2997 N   0  0  0  0  0  0  0  0  0  0  0  0
   -2.5833    0.7361    0.2630 N   0  0  0  0  0  0  0  0  0  0  0  0
   -2.0092   -1.1632    1.4934 O   0  0  0  0  0  0  0  0  0  0  0  0
    4.4981   -1.4533   -1.7596 O   0  0  0  0  0  0  0  0  0  0  0  0
    4.3800    0.9691   -2.0540 O   0  0  0  0  0  0  0  0  0  0  0  0
    4.1551   -0.1556   -1.0825 S   0  0  0  0  0  6  0  0  0  0  0  0
  1  2  1  0
  2 11  1  0
  3  5  2  0
  3  7  1  0
  4  6  1  0
  4  7  2  0
  5  8  1  0
  6  8  2  0
  7  9  1  0
  8 15  1  0
  9 11  1  0
  9 12  2  0
 10 15  1  0
 13 15  2  0
 14 15  2  0
M  END
$$$$
