3RYV_RYV_B_1_
     RDKit          3D

 15 15  0  0  0  0  0  0  0  0999 V2000
   15.2907   -0.0397   16.9206 S   0  0  0  0  0  0  0  0  0  0  0  0
   18.8928    4.7209   13.7237 N   0  0  0  0  0  0  0  0  0  0  0  0
   16.9020    5.7219   13.8085 O   0  0  0  0  0  0  0  0  0  0  0  0
   17.0639    3.5667   14.7660 C   0  0  0  0  0  0  0  0  0  0  0  0
   15.1186    2.3781   15.6275 C   0  0  0  0  0  0  0  0  0  0  0  0
   15.6742    3.4862   14.9673 C   0  0  0  0  0  0  0  0  0  0  0  0
   15.9405    1.3236   16.0715 C   0  0  0  0  0  0  0  0  0  0  0  0
   17.8969    2.5151   15.2380 C   0  0  0  0  0  0  0  0  0  0  0  0
   17.3443    1.4230   15.9083 C   0  0  0  0  0  0  0  0  0  0  0  0
   17.6505    4.7259   14.0348 C   0  0  0  0  0  0  0  0  0  0  0  0
   19.5093    5.8510   12.9834 C   0  0  0  0  0  0  0  0  0  0  0  0
   13.8755    0.0475   16.7712 O   0  0  0  0  0  0  0  0  0  0  0  0
   19.6842    6.9436   14.0620 C   0  0  0  0  0  0  0  0  0  0  0  0
   15.8012    0.0107   18.2934 O   0  0  0  0  0  0  0  0  0  0  0  0
   15.9022   -1.3526   16.1786 N   0  0  0  0  0  0  0  0  0  0  0  0
  4  6  2  0
  5  6  1  0
  1  7  1  0
  5  7  2  0
  4  8  1  0
  7  9  1  0
  8  9  2  0
  2 10  1  0
  3 10  2  0
  4 10  1  0
  2 11  1  0
  1 12  2  0
 11 13  1  0
  1 14  2  0
  1 15  1  0
M  END
$$$$
