3ZSO_O2N_A_1219_
     RDKit          3D

 44 48  0  0  0  0  0  0  0  0999 V2000
  -11.1980   48.6360    5.7650 C   0  0  0  0  0  0  0  0  0  0  0  0
  -12.1670   49.3520    5.0980 C   0  0  0  0  0  0  0  0  0  0  0  0
  -10.1340   48.1430    5.0200 C   0  0  0  0  0  0  0  0  0  0  0  0
  -12.0970   49.5930    3.7350 C   0  0  0  0  0  0  0  0  0  0  0  0
  -11.4330   45.7610   -1.7080 C   0  0  0  0  0  0  0  0  0  0  0  0
   -7.5110   45.0570   -0.0520 C   0  0  0  0  0  0  0  0  0  0  0  0
   -9.0860   44.1280    1.4740 C   0  0  0  0  0  0  0  0  0  0  0  0
   -5.2450   45.7400    3.4850 C   0  0  0  0  0  0  0  0  0  0  0  0
   -6.8620   44.1580    4.2050 C   0  0  0  0  0  0  0  0  0  0  0  0
  -12.1820   45.0440   -2.6950 C   0  0  0  0  0  0  0  0  0  0  0  0
   -8.0190   44.2790   -1.1000 C   0  0  0  0  0  0  0  0  0  0  0  0
   -9.6300   43.3030    0.4780 C   0  0  0  0  0  0  0  0  0  0  0  0
   -4.3690   45.1910    4.4190 C   0  0  0  0  0  0  0  0  0  0  0  0
   -5.9900   43.5460    5.1380 C   0  0  0  0  0  0  0  0  0  0  0  0
  -10.0470   48.3700    3.6580 C   0  0  0  0  0  0  0  0  0  0  0  0
  -13.3770   45.9810   -0.2340 C   0  0  0  0  0  0  0  0  0  0  0  0
   -8.0280   44.9890    1.2360 C   0  0  0  0  0  0  0  0  0  0  0  0
   -6.5240   45.2110    3.3620 C   0  0  0  0  0  0  0  0  0  0  0  0
  -11.0350   49.1020    3.0010 C   0  0  0  0  0  0  0  0  0  0  0  0
  -12.0130   46.2190   -0.4920 C   0  0  0  0  0  0  0  0  0  0  0  0
  -13.5130   44.8600   -2.4080 C   0  0  0  0  0  0  0  0  0  0  0  0
  -14.0810   45.2910   -1.2220 C   0  0  0  0  0  0  0  0  0  0  0  0
   -9.0620   43.3710   -0.7840 C   0  0  0  0  0  0  0  0  0  0  0  0
   -4.7340   44.1160    5.2220 C   0  0  0  0  0  0  0  0  0  0  0  0
  -10.1880   50.4690   -1.8410 C   0  0  0  0  0  0  0  0  0  0  0  0
  -10.5950   49.2370   -1.4870 C   0  0  0  0  0  0  0  0  0  0  0  0
   -8.8760   47.8470    2.9210 C   0  0  0  0  0  0  0  0  0  0  0  0
  -14.1030   46.3470    1.0410 C   0  0  0  0  0  0  0  0  0  0  0  0
  -15.6260   44.2650   -2.3770 C   0  0  0  0  0  0  0  0  0  0  0  0
  -10.0940   41.2730   -1.5770 C   0  0  0  0  0  0  0  0  0  0  0  0
   -4.2950   42.9450    7.2050 C   0  0  0  0  0  0  0  0  0  0  0  0
  -10.9890   49.4020    1.5390 C   0  0  0  0  0  0  0  0  0  0  0  0
  -11.2370   46.9690    0.5810 C   0  0  0  0  0  0  0  0  0  0  0  0
  -11.8720   49.0400   -0.7170 C   0  0  0  0  0  0  0  0  0  0  0  0
   -7.4560   45.8790    2.3540 C   0  0  0  0  0  0  0  0  0  0  0  0
   -8.5540   46.4980    3.0730 N   0  0  0  0  0  0  0  0  0  0  0  0
  -11.7660   48.4410    0.6520 N   0  0  0  0  0  0  0  0  0  0  0  0
  -14.9210   45.4650    1.4580 O   0  0  0  0  0  0  0  0  0  0  0  0
   -8.2340   48.6430    2.2300 O   0  0  0  0  0  0  0  0  0  0  0  0
  -13.8560   47.3660    1.7630 O   0  0  0  0  0  0  0  0  0  0  0  0
  -14.4350   44.2300   -3.1870 O   0  0  0  0  0  0  0  0  0  0  0  0
  -15.4470   44.9910   -1.1430 O   0  0  0  0  0  0  0  0  0  0  0  0
   -9.5610   42.5890   -1.8390 O   0  0  0  0  0  0  0  0  0  0  0  0
   -3.7480   43.6550    6.0940 O   0  0  0  0  0  0  0  0  0  0  0  0
  1  2  2  0
  1  3  1  0
  2  4  1  0
  5 10  2  0
  6 11  2  0
  7 12  1  0
  8 13  2  0
  9 14  1  0
  3 15  2  0
  6 17  1  0
  7 17  2  0
  8 18  1  0
  9 18  2  0
  4 19  2  0
 15 19  1  0
  5 20  1  0
 16 20  2  0
 10 21  1  0
 16 22  1  0
 21 22  2  0
 11 23  1  0
 12 23  2  0
 13 24  1  0
 14 24  2  0
 25 26  2  0
 15 27  1  0
 16 28  1  0
 19 32  1  0
 20 33  1  0
 26 34  1  0
 17 35  1  0
 18 35  1  0
 27 36  1  0
 35 36  1  0
 32 37  1  0
 33 37  1  0
 34 37  1  0
 28 38  1  0
 27 39  2  0
 28 40  2  0
 21 41  1  0
 29 41  1  0
 22 42  1  0
 29 42  1  0
 23 43  1  0
 30 43  1  0
 24 44  1  0
 31 44  1  0
M  END
$$$$
