
     RDKit          3D

 35 38  0  0  0  0  0  0  0  0999 V2000
   -0.4989   -1.2821    3.7760 C   0  0  0  0  0  0  0  0  0  0  0  0
   -0.6814   -0.0726    3.0975 C   0  0  0  0  0  0  0  0  0  0  0  0
   -1.4532   -2.2976    3.6637 C   0  0  0  0  0  0  0  0  0  0  0  0
   -3.7058   -1.1034   -0.1034 C   0  0  0  0  0  0  0  0  0  0  0  0
   -4.8606   -0.7939   -1.0803 C   0  0  0  0  0  0  0  0  0  0  0  0
   -1.8223    0.1267    2.3134 C   0  0  0  0  0  0  0  0  0  0  0  0
   -2.5968   -2.1021    2.8805 C   0  0  0  0  0  0  0  0  0  0  0  0
   -4.0079   -0.6798    1.3396 C   0  0  0  0  0  0  0  0  0  0  0  0
   -5.1858    0.7049   -1.2463 C   0  0  0  0  0  0  0  0  0  0  0  0
   -0.8532    4.8216    0.2293 C   0  0  0  0  0  0  0  0  0  0  0  0
   -2.1103    4.2223    0.0339 C   0  0  0  0  0  0  0  0  0  0  0  0
    1.6174    4.3883    0.0262 C   0  0  0  0  0  0  0  0  0  0  0  0
    1.5654   -0.0453   -0.1722 C   0  0  0  0  0  0  0  0  0  0  0  0
    2.2961    3.2601   -0.4248 C   0  0  0  0  0  0  0  0  0  0  0  0
    1.7602    0.9684   -1.3063 C   0  0  0  0  0  0  0  0  0  0  0  0
   -1.0411    2.2170   -0.8706 C   0  0  0  0  0  0  0  0  0  0  0  0
    4.2802   -1.5258   -0.5109 C   0  0  0  0  0  0  0  0  0  0  0  0
    1.4652   -2.5105    0.4578 C   0  0  0  0  0  0  0  0  0  0  0  0
    3.4608   -2.0797   -2.4192 C   0  0  0  0  0  0  0  0  0  0  0  0
   -2.7954   -0.8829    2.2102 C   0  0  0  0  0  0  0  0  0  0  0  0
    0.2792    4.0919   -0.1244 C   0  0  0  0  0  0  0  0  0  0  0  0
   -2.2133    2.9295   -0.5305 C   0  0  0  0  0  0  0  0  0  0  0  0
    1.7582   -1.4957   -0.6617 C   0  0  2  0  0  0  0  0  0  0  0  0
    5.3055   -1.8112   -1.3881 C   0  0  0  0  0  0  0  0  0  0  0  0
    0.1922    2.8327   -0.6558 C   0  0  0  0  0  0  0  0  0  0  0  0
   -3.9527    1.5168   -1.5066 C   0  0  0  0  0  0  0  0  0  0  0  0
    6.7455   -1.7413   -1.1015 C   0  0  0  0  0  0  0  0  0  0  0  0
    7.1627   -1.4029    0.0805 N   0  0  0  0  0  0  0  0  0  0  0  0
    4.7979   -2.1601   -2.5895 N   0  0  0  0  0  0  0  0  0  0  0  0
   -3.4905    2.2799   -0.5573 N   0  0  0  0  0  0  0  0  0  0  0  0
    1.4224    2.3163   -0.8473 N   0  0  0  0  0  0  0  0  0  0  0  0
    3.1196   -1.6962   -1.1721 N   0  0  0  0  0  0  0  0  0  0  0  0
    0.1187   -2.4482    0.8509 O   0  0  0  0  0  0  0  0  0  0  0  0
   -3.3190    1.4028   -2.7476 O   0  0  0  0  0  0  0  0  0  0  0  0
    7.6588   -2.0359   -2.1138 O   0  0  0  0  0  0  0  0  0  0  0  0
  1  2  2  0
  1  3  1  0
  2  6  1  0
  3  7  2  0
  4  5  1  0
  4  8  1  0
  5  9  1  0
  6 20  2  0
  7 20  1  0
  8 20  1  0
  9 26  1  0
 10 11  2  0
 10 21  1  0
 11 22  1  0
 12 14  2  0
 12 21  1  0
 13 15  1  0
 23 13  1  1
 14 31  1  0
 15 31  1  0
 16 22  2  0
 16 25  1  0
 17 24  2  0
 17 32  1  0
 18 23  1  0
 18 33  1  0
 19 29  2  0
 19 32  1  0
 21 25  2  0
 22 30  1  0
 23 32  1  0
 24 27  1  0
 24 29  1  0
 25 31  1  0
 26 30  2  3
 26 34  1  0
 27 28  2  3
 27 35  1  0
M  END
$$$$
