
     RDKit          3D

 24 26  0  0  0  0  0  0  0  0999 V2000
    2.4041    2.4232   -1.8339 C   0  0  0  0  0  0  0  0  0  0  0  0
   -3.6557   -2.3522    2.3100 C   0  0  0  0  0  0  0  0  0  0  0  0
   -3.0253   -2.9133    1.2007 C   0  0  0  0  0  0  0  0  0  0  0  0
   -3.0278    2.0933    0.4766 C   0  0  0  0  0  0  0  0  0  0  0  0
   -3.8106   -0.9694    2.4017 C   0  0  0  0  0  0  0  0  0  0  0  0
   -3.4971    1.2540    1.4831 C   0  0  0  0  0  0  0  0  0  0  0  0
   -2.3846    1.5617   -0.6391 C   0  0  0  0  0  0  0  0  0  0  0  0
   -2.5419   -2.0970    0.1752 C   0  0  0  0  0  0  0  0  0  0  0  0
   -1.4489   -0.3259   -1.9968 C   0  0  0  0  0  0  0  0  0  0  0  0
    0.0134   -0.7069   -1.6884 C   0  0  0  0  0  0  0  0  0  0  0  0
    2.2459    0.1267    0.9097 C   0  0  0  0  0  0  0  0  0  0  0  0
    2.9774   -0.9447   -0.8028 C   0  0  0  0  0  0  0  0  0  0  0  0
    1.4672    1.3246   -2.3543 C   0  0  1  0  0  0  0  0  0  0  0  0
   -3.3310   -0.1334    1.3809 C   0  0  0  0  0  0  0  0  0  0  0  0
   -2.1952    0.1742   -0.7739 C   0  0  0  0  0  0  0  0  0  0  0  0
   -2.6793   -0.6926    0.2465 C   0  0  0  0  0  0  0  0  0  0  0  0
    3.3629   -0.5991    1.2610 C   0  0  0  0  0  0  0  0  0  0  0  0
    0.9090    0.4603   -1.1925 C   0  0  2  0  0  0  0  0  0  0  0  0
    3.9715   -0.6482    2.5960 C   0  0  0  0  0  0  0  0  0  0  0  0
    5.0248   -1.3739    2.7984 N   0  0  0  0  0  0  0  0  0  0  0  0
    3.8291   -1.2764    0.1904 N   0  0  0  0  0  0  0  0  0  0  0  0
    2.0117   -0.0935   -0.3949 N   0  0  0  0  0  0  0  0  0  0  0  0
    0.4094    1.9303   -3.0493 O   0  0  0  0  0  0  0  0  0  0  0  0
    3.4106    0.0880    3.6388 O   0  0  0  0  0  0  0  0  0  0  0  0
 13  1  1  1
  2  3  2  0
  2  5  1  0
  3  8  1  0
  4  6  2  0
  4  7  1  0
  5 14  2  0
  6 14  1  0
  7 15  2  0
  8 16  2  0
  9 10  1  0
  9 15  1  0
 18 10  1  6
 11 17  2  0
 11 22  1  0
 12 21  2  0
 12 22  1  0
 13 18  1  0
 13 23  1  0
 14 16  1  0
 15 16  1  0
 17 19  1  0
 17 21  1  0
 18 22  1  0
 19 20  2  3
 19 24  1  0
M  END
$$$$
