3S1G_ITE_A_501_
     RDKit          3D

 16 18  0  0  0  0  0  0  0  0999 V2000
   15.7174   16.5216   22.0862 N   0  0  0  0  0  0  0  0  0  0  0  0
   18.8062   17.9199   15.9324 N   0  0  0  0  0  0  0  0  0  0  0  0
   18.5228   17.6158   19.3074 C   0  0  0  0  0  0  0  0  0  0  0  0
   18.4197   17.7197   17.1628 C   0  0  0  0  0  0  0  0  0  0  0  0
   17.9001   17.6869   14.8082 C   0  0  0  0  0  0  0  0  0  0  0  0
   17.2662   17.2211   18.8823 C   0  0  0  0  0  0  0  0  0  0  0  0
   16.2841   16.8370   19.7980 C   0  0  0  0  0  0  0  0  0  0  0  0
   15.9648   16.5346   23.4090 C   0  0  0  0  0  0  0  0  0  0  0  0
   16.6220   16.8810   21.1576 C   0  0  0  0  0  0  0  0  0  0  0  0
   17.9013   17.2892   21.5767 C   0  0  0  0  0  0  0  0  0  0  0  0
   18.8903   17.6754   20.6550 C   0  0  0  0  0  0  0  0  0  0  0  0
   19.1797   17.9010   18.1695 N   0  0  0  0  0  0  0  0  0  0  0  0
   17.2409   17.3033   17.5238 N   0  0  0  0  0  0  0  0  0  0  0  0
   18.1250   17.2881   22.9577 C   0  0  0  0  0  0  0  0  0  0  0  0
   19.3496   17.6846   23.4488 O   0  0  0  0  0  0  0  0  0  0  0  0
   17.1775   16.9236   23.8552 N   0  0  0  0  0  0  0  0  0  0  0  0
  2  4  1  0
  2  5  1  0
  3  6  2  0
  6  7  1  0
  1  8  2  0
  7  9  2  0
  1  9  1  0
  9 10  1  0
  3 11  1  0
 10 11  2  0
  4 12  1  0
  3 12  1  0
  4 13  2  0
  6 13  1  0
 10 14  1  0
 14 15  2  0
  8 16  1  0
 14 16  1  0
M  END
$$$$
