
     RDKit          3D

 16 18  0  0  0  0  0  0  0  0999 V2000
   -4.7347    0.4910    0.0437 C   0  0  0  0  0  0  0  0  0  0  0  0
    1.0569    0.5103   -1.2093 C   0  0  0  0  0  0  0  0  0  0  0  0
    0.3103   -0.7778    1.2205 C   0  0  0  0  0  0  0  0  0  0  0  0
    3.9284   -1.2384    1.2717 C   0  0  0  0  0  0  0  0  0  0  0  0
    2.0415   -0.0764   -0.3813 C   0  0  0  0  0  0  0  0  0  0  0  0
    1.6638   -0.7204    0.8344 C   0  0  0  0  0  0  0  0  0  0  0  0
   -0.2683    0.4301   -0.7888 C   0  0  0  0  0  0  0  0  0  0  0  0
   -0.6266   -0.1876    0.3764 C   0  0  0  0  0  0  0  0  0  0  0  0
    3.4038   -0.0508   -0.7133 C   0  0  0  0  0  0  0  0  0  0  0  0
   -2.3765    0.5576   -0.5701 C   0  0  0  0  0  0  0  0  0  0  0  0
   -3.6181    0.8488   -0.8226 N   0  0  0  0  0  0  0  0  0  0  0  0
    2.6173   -1.2807    1.6223 N   0  0  0  0  0  0  0  0  0  0  0  0
    4.3103   -0.6303    0.1183 N   0  0  0  0  0  0  0  0  0  0  0  0
   -1.3646    0.9076   -1.4005 N   0  0  0  0  0  0  0  0  0  0  0  0
   -1.9590   -0.1178    0.5336 N   0  0  0  0  0  0  0  0  0  0  0  0
    3.8389    0.5620   -1.8860 O   0  0  0  0  0  0  0  0  0  0  0  0
  1 11  1  0
  2  5  2  0
  2  7  1  0
  3  6  2  0
  3  8  1  0
  4 12  2  0
  4 13  1  0
  5  6  1  0
  5  9  1  0
  6 12  1  0
  7  8  2  0
  7 14  1  0
  8 15  1  0
  9 13  2  0
  9 16  1  0
 10 11  2  3
 10 14  1  0
 10 15  1  0
M  END
$$$$
