3QCE_NXY_A_2001_B
     RDKit          3D

 18 19  0  0  0  0  0  0  0  0999 V2000
   19.7939   29.7562   61.9469 C   0  0  0  0  0  0  0  0  0  0  0  0
   20.8945   30.3715   62.6588 C   0  0  0  0  0  0  0  0  0  0  0  0
   19.4662   29.6858   60.2420 S   0  0  0  0  0  0  0  0  0  0  0  0
   19.1600   29.2862   63.0018 C   0  0  0  0  0  0  0  0  0  0  0  0
   20.7166   30.0866   64.4289 S   0  0  0  0  0  0  0  0  0  0  0  0
   21.9615   31.1089   61.9913 C   0  0  0  0  0  0  0  0  0  0  0  0
   17.8569   28.9438   60.4504 C   0  0  0  0  0  0  0  0  0  0  0  0
   19.1978   29.2130   64.3163 C   0  0  0  0  0  0  0  0  0  0  0  0
   22.7230   31.8122   62.6812 O   0  0  0  0  0  0  0  0  0  0  0  0
   22.0632   31.0263   60.7543 O   0  0  0  0  0  0  0  0  0  0  0  0
   17.3699   28.4426   59.1376 C   0  0  0  0  0  0  0  0  0  0  0  0
   17.7915   27.1338   58.7468 C   0  0  0  0  0  0  0  0  0  0  0  0
   16.5114   29.3031   58.3581 C   0  0  0  0  0  0  0  0  0  0  0  0
   17.3013   26.7036   57.4917 C   0  0  0  0  0  0  0  0  0  0  0  0
   16.0582   28.8846   57.0707 C   0  0  0  0  0  0  0  0  0  0  0  0
   16.4856   27.5754   56.6795 C   0  0  0  0  0  0  0  0  0  0  0  0
   17.6364   25.0962   56.9983 Cl  0  0  0  0  0  0  0  0  0  0  0  0
   15.9687   26.9895   55.1626 Cl  0  0  0  0  0  0  0  0  0  0  0  0
  1  2  2  0
  1  3  1  0
  1  4  1  0
  2  5  1  0
  2  6  1  0
  3  7  1  0
  4  8  2  0
  5  8  1  0
  6  9  2  0
  6 10  1  0
  7 11  1  0
 11 12  2  0
 11 13  1  0
 12 14  1  0
 13 15  2  0
 14 16  2  0
 15 16  1  0
 14 17  1  0
 16 18  1  0
M  END
$$$$
