
     RDKit          3D

 18 19  0  0  0  0  0  0  0  0999 V2000
   -1.4149   -0.4641   -0.4722 C   0  0  0  0  0  0  0  0  0  0  0  0
   -1.8634   -1.4617    0.3966 C   0  0  0  0  0  0  0  0  0  0  0  0
    1.9370    0.5081   -2.4703 C   0  0  0  0  0  0  0  0  0  0  0  0
    2.3957   -0.7731   -2.7414 C   0  0  0  0  0  0  0  0  0  0  0  0
   -1.5875    1.1657    1.3130 C   0  0  0  0  0  0  0  0  0  0  0  0
   -0.7271    1.9209   -0.9319 C   0  0  0  0  0  0  0  0  0  0  0  0
   -1.2708    0.8566   -0.0189 C   0  0  0  0  0  0  0  0  0  0  0  0
   -2.1741   -1.1532    1.7253 C   0  0  0  0  0  0  0  0  0  0  0  0
   -2.0373    0.1675    2.1853 C   0  0  0  0  0  0  0  0  0  0  0  0
    1.6668    0.7352   -1.1138 C   0  0  0  0  0  0  0  0  0  0  0  0
    1.9314   -0.3727   -0.3025 C   0  0  0  0  0  0  0  0  0  0  0  0
    1.7795   -0.4863    1.1578 C   0  0  0  0  0  0  0  0  0  0  0  0
   -2.7242   -2.4384    2.7915 Cl  0  0  0  0  0  0  0  0  0  0  0  0
   -2.4077    0.5958    3.8499 Cl  0  0  0  0  0  0  0  0  0  0  0  0
    1.5089    0.5241    1.8591 O   0  0  0  0  0  0  0  0  0  0  0  0
    1.9458   -1.7234    1.7723 O   0  0  0  0  0  0  0  0  0  0  0  0
    2.4727   -1.6201   -1.2925 S   0  0  0  0  0  0  0  0  0  0  0  0
    1.0147    2.3059   -0.5288 S   0  0  0  0  0  0  0  0  0  0  0  0
  1  2  2  0
  1  7  1  0
  2  8  1  0
  3  4  2  0
  3 10  1  0
  4 17  1  0
  5  7  2  0
  5  9  1  0
  6  7  1  0
  6 18  1  0
  8  9  2  0
  8 13  1  0
  9 14  1  0
 10 11  2  0
 10 18  1  0
 11 12  1  0
 11 17  1  0
 12 15  2  0
 12 16  1  0
M  END
$$$$
