
     RDKit          3D

 16 17  0  0  0  0  0  0  0  0999 V2000
   -4.2011    0.9516   -0.5675 C   0  0  0  0  0  0  0  0  0  0  0  0
   -3.7512    1.1223    0.8795 C   0  0  0  0  0  0  0  0  0  0  0  0
   -1.1906   -1.5843    1.4241 C   0  0  0  0  0  0  0  0  0  0  0  0
    0.1251   -1.9688    1.1160 C   0  0  0  0  0  0  0  0  0  0  0  0
   -0.8893    0.5163    0.2186 C   0  0  0  0  0  0  0  0  0  0  0  0
   -1.7100   -0.3491    0.9799 C   0  0  0  0  0  0  0  0  0  0  0  0
    0.9167   -1.1048    0.3616 C   0  0  0  0  0  0  0  0  0  0  0  0
    0.4098    0.1089   -0.0717 C   0  0  0  0  0  0  0  0  0  0  0  0
    2.7053   -0.3334   -0.7264 C   0  0  0  0  0  0  0  0  0  0  0  0
    5.1187    1.1562   -0.9124 N   0  0  0  0  0  0  0  0  0  0  0  0
    2.1997   -1.3595   -0.0007 N   0  0  0  0  0  0  0  0  0  0  0  0
    4.2910   -0.4323   -2.8607 O   0  0  0  0  0  0  0  0  0  0  0  0
    5.1050   -1.4801   -0.7996 O   0  0  0  0  0  0  0  0  0  0  0  0
   -3.0330   -0.0282    1.3255 O   0  0  0  0  0  0  0  0  0  0  0  0
    1.5905    0.9205   -0.9465 S   0  0  0  0  0  0  0  0  0  0  0  0
    4.3364   -0.3180   -1.3633 S   0  0  0  0  0  6  0  0  0  0  0  0
  1  2  1  0
  2 14  1  0
  3  4  2  0
  3  6  1  0
  4  7  1  0
  5  6  2  0
  5  8  1  0
  6 14  1  0
  7  8  2  0
  7 11  1  0
  8 15  1  0
  9 11  2  0
  9 15  1  0
  9 16  1  0
 10 16  1  0
 12 16  2  0
 13 16  2  0
M  END
$$$$
