
     RDKit          3D

  9  9  0  0  0  0  0  0  0  0999 V2000
    2.1747   -0.8940   -0.4802 C   0  0  0  0  0  0  0  0  0  0  0  0
    2.5209    0.4292   -0.2306 C   0  0  0  0  0  0  0  0  0  0  0  0
    0.1776   -0.1338    0.1946 C   0  0  0  0  0  0  0  0  0  0  0  0
   -2.3478    1.1044   -0.2173 N   0  0  0  0  0  0  0  0  0  0  0  0
    0.8724   -1.2047   -0.2431 N   0  0  0  0  0  0  0  0  0  0  0  0
   -2.1078   -1.4959    0.1619 O   0  0  0  0  0  0  0  0  0  0  0  0
   -1.6945   -0.0302    2.0827 O   0  0  0  0  0  0  0  0  0  0  0  0
    1.1446    1.2345    0.3058 S   0  0  0  0  0  0  0  0  0  0  0  0
   -1.5261   -0.1801    0.5973 S   0  0  0  0  0  6  0  0  0  0  0  0
  1  2  2  0
  1  5  1  0
  2  8  1  0
  3  5  2  0
  3  8  1  0
  3  9  1  0
  4  9  1  0
  6  9  2  0
  7  9  2  0
M  END
$$$$
