1G3C_109_A_601_
     RDKit          3D

 17 17  0  0  0  0  0  0  0  0999 V2000
   43.7760   -2.9840   26.3340 C   0  0  0  0  0  0  0  0  0  0  0  0
   42.6870   -3.4910   27.0250 C   0  0  0  0  0  0  0  0  0  0  0  0
   42.1470   -2.8120   28.1190 C   0  0  0  0  0  0  0  0  0  0  0  0
   42.7050   -1.5930   28.5210 C   0  0  0  0  0  0  0  0  0  0  0  0
   43.8020   -1.0980   27.8230 C   0  0  0  0  0  0  0  0  0  0  0  0
   44.3300   -1.7810   26.7420 C   0  0  0  0  0  0  0  0  0  0  0  0
   42.1720   -0.8230   29.6300 C   0  0  0  0  0  0  0  0  0  0  0  0
   44.3230   -3.6950   25.1950 C   0  0  0  0  0  0  0  0  0  0  0  0
   41.0910   -3.4080   28.7090 O   0  0  0  0  0  0  0  0  0  0  0  0
   44.3660   -5.0210   25.1850 N   0  0  0  0  0  0  0  0  0  0  0  0
   44.7760   -3.0120   24.1510 N   0  0  0  0  0  0  0  0  0  0  0  0
   41.1490   -1.1790   30.3540 N   0  0  0  0  0  0  0  0  0  0  0  0
   40.7150   -0.2720   31.4140 C   0  0  0  0  0  0  0  0  0  0  0  0
   39.8550    0.8360   30.8140 C   0  0  0  0  0  0  0  0  0  0  0  0
   39.9250   -1.0200   32.4830 C   0  0  0  0  0  0  0  0  0  0  0  0
   39.9130   -0.5670   33.6350 O   0  0  0  0  0  0  0  0  0  0  0  0
   39.3100   -2.0870   32.1030 O   0  0  0  0  0  0  0  0  0  0  0  0
  1  2  2  0
  2  3  1  0
  3  4  2  0
  4  5  1  0
  1  6  1  0
  5  6  2  0
  4  7  1  0
  1  8  1  0
  3  9  1  0
  8 10  1  0
  8 11  2  0
  7 12  1  0
 12 13  1  0
 13 14  1  0
 13 15  1  0
 15 16  2  0
 15 17  1  0
M  END
$$$$
