
     RDKit          3D

 17 17  0  0  0  0  0  0  0  0999 V2000
   -3.2918   -0.4478   -1.8384 C   0  0  0  0  0  0  0  0  0  0  0  0
    2.2285   -1.3302   -0.5384 C   0  0  0  0  0  0  0  0  0  0  0  0
    0.9835   -1.6983   -0.0248 C   0  0  0  0  0  0  0  0  0  0  0  0
    1.9101    0.9176    0.3010 C   0  0  0  0  0  0  0  0  0  0  0  0
   -1.1604   -1.1914    1.1821 C   0  0  0  0  0  0  0  0  0  0  0  0
   -2.6294   -0.1616   -0.4903 C   0  0  1  0  0  0  0  0  0  0  0  0
    2.7039   -0.0159   -0.3889 C   0  0  0  0  0  0  0  0  0  0  0  0
    0.1901   -0.7662    0.6596 C   0  0  0  0  0  0  0  0  0  0  0  0
    0.6592    0.5520    0.8200 C   0  0  0  0  0  0  0  0  0  0  0  0
    4.0294    0.3675   -0.9373 C   0  0  0  0  0  0  0  0  0  0  0  0
   -3.6127    0.4976    0.4441 C   0  0  0  0  0  0  0  0  0  0  0  0
    4.9408   -0.5398   -1.1015 N   0  0  0  0  0  0  0  0  0  0  0  0
    4.3107    1.7244   -1.3031 N   0  0  0  0  0  0  0  0  0  0  0  0
   -2.0973   -1.4181    0.0713 N   0  0  0  0  0  0  0  0  0  0  0  0
   -0.1151    1.4973    1.4931 O   0  0  0  0  0  0  0  0  0  0  0  0
   -4.6635   -0.1043    0.7953 O   0  0  0  0  0  0  0  0  0  0  0  0
   -3.3561    1.7785    0.9229 O   0  0  0  0  0  0  0  0  0  0  0  0
  6  1  1  6
  2  3  2  0
  2  7  1  0
  3  8  1  0
  4  7  2  0
  4  9  1  0
  5  8  1  0
  5 14  1  0
  6 11  1  0
  6 14  1  0
  7 10  1  0
  8  9  2  0
  9 15  1  0
 10 12  2  3
 10 13  1  0
 11 16  2  0
 11 17  1  0
M  END
$$$$
