1CE5_BEN_A_703_
     RDKit          3D

  9  9  0  0  0  0  0  0  0  0999 V2000
   44.0122   -3.0459   26.2420 C   0  0  0  0  0  0  0  0  0  0  0  0
   43.3061   -3.7310   27.3681 C   0  0  0  0  0  0  0  0  0  0  0  0
   43.1496   -3.0870   28.6793 C   0  0  0  0  0  0  0  0  0  0  0  0
   43.6310   -1.7122   28.8753 C   0  0  0  0  0  0  0  0  0  0  0  0
   44.2778   -0.9883   27.7840 C   0  0  0  0  0  0  0  0  0  0  0  0
   44.5103   -1.6590   26.5020 C   0  0  0  0  0  0  0  0  0  0  0  0
   44.2596   -3.7086   24.9771 C   0  0  0  0  0  0  0  0  0  0  0  0
   44.6709   -3.0755   23.8541 N   0  0  0  0  0  0  0  0  0  0  0  0
   44.1041   -5.0372   24.7772 N   0  0  0  0  0  0  0  0  0  0  0  0
  1  2  2  0
  2  3  1  0
  3  4  2  0
  4  5  1  0
  1  6  1  0
  5  6  2  0
  1  7  1  0
  7  8  2  0
  7  9  1  0
M  END
$$$$
