
     RDKit          3D

 18 20  0  0  0  0  0  0  0  0999 V2000
    4.0833   -0.0785    1.2117 C   0  0  0  0  0  0  0  0  0  0  0  0
    2.9568   -0.5791    1.9031 C   0  0  0  0  0  0  0  0  0  0  0  0
    3.9268    0.5905   -0.0167 C   0  0  0  0  0  0  0  0  0  0  0  0
    1.6633   -0.4118    1.3748 C   0  0  0  0  0  0  0  0  0  0  0  0
   -2.7913    0.4242    1.3256 C   0  0  0  0  0  0  0  0  0  0  0  0
   -1.4572    0.6820    1.0006 C   0  0  0  0  0  0  0  0  0  0  0  0
   -3.0957   -0.6910   -0.8014 C   0  0  0  0  0  0  0  0  0  0  0  0
   -3.6145   -0.2620    0.4242 C   0  0  0  0  0  0  0  0  0  0  0  0
    2.6341    0.7417   -0.5131 C   0  0  0  0  0  0  0  0  0  0  0  0
    1.5432    0.2676    0.1602 C   0  0  0  0  0  0  0  0  0  0  0  0
   -0.9303    0.2563   -0.2289 C   0  0  0  0  0  0  0  0  0  0  0  0
   -1.7560   -0.4390   -1.1321 C   0  0  0  0  0  0  0  0  0  0  0  0
    0.9129    1.1867   -1.6518 C   0  0  0  0  0  0  0  0  0  0  0  0
    2.2636    1.3305   -1.6661 N   0  0  0  0  0  0  0  0  0  0  0  0
    0.4399    0.5390   -0.5572 N   0  0  0  0  0  0  0  0  0  0  0  0
   -4.9467   -0.5230    0.7364 O   0  0  0  0  0  0  0  0  0  0  0  0
   -1.2391   -0.8920   -2.3451 O   0  0  0  0  0  0  0  0  0  0  0  0
    0.0917    1.6815   -2.6603 O   0  0  0  0  0  0  0  0  0  0  0  0
  1  2  2  0
  1  3  1  0
  2  4  1  0
  3  9  2  0
  4 10  2  0
  5  6  2  0
  5  8  1  0
  6 11  1  0
  7  8  2  0
  7 12  1  0
  8 16  1  0
  9 10  1  0
  9 14  1  0
 10 15  1  0
 11 12  2  0
 11 15  1  0
 12 17  1  0
 13 14  2  0
 13 15  1  0
 13 18  1  0
M  END
$$$$
