3S78_EVJ_B_1_B
     RDKit          3D

  9  9  0  0  0  0  0  0  0  0999 V2000
   -5.8612    1.0588   16.6687 S   0  0  0  0  0  0  0  0  0  0  0  0
   -7.3276    1.1854   16.6333 O   0  0  0  0  0  0  0  0  0  0  0  0
   -5.3390    1.1239   18.0307 O   0  0  0  0  0  0  0  0  0  0  0  0
   -5.4020   -0.2527   15.9360 N   0  0  0  0  0  0  0  0  0  0  0  0
   -3.6260    2.7260   15.4543 S   0  0  0  0  0  0  0  0  0  0  0  0
   -5.2907    2.3631   15.7880 C   0  0  0  0  0  0  0  0  0  0  0  0
   -6.1128    3.3189   15.2255 C   0  0  0  0  0  0  0  0  0  0  0  0
   -5.3759    4.2930   14.5558 C   0  0  0  0  0  0  0  0  0  0  0  0
   -3.9746    4.1677   14.5543 C   0  0  0  0  0  0  0  0  0  0  0  0
  1  2  2  0
  1  3  2  0
  1  4  1  0
  1  6  1  0
  5  6  1  0
  6  7  2  0
  7  8  1  0
  5  9  1  0
  8  9  2  0
M  END
$$$$
