
     RDKit          3D

 33 34  0  0  0  0  0  0  0  0999 V2000
    0.7240   -1.6253    2.3412 C   0  0  0  0  0  0  0  0  0  0  0  0
   -2.9706   -3.6858   -2.0683 C   0  0  0  0  0  0  0  0  0  0  0  0
   -0.1770   -0.6492    1.5883 C   0  0  0  0  0  0  0  0  0  0  0  0
   -1.7851   -2.8510    0.0396 C   0  0  0  0  0  0  0  0  0  0  0  0
   -2.3694    0.9586   -0.4112 C   0  0  0  0  0  0  0  0  0  0  0  0
    3.2285    0.3726   -0.7977 C   0  0  0  0  0  0  0  0  0  0  0  0
    5.4881    1.4667   -0.6631 C   0  0  0  0  0  0  0  0  0  0  0  0
   -3.0730   -3.4617   -0.5549 C   0  0  1  0  0  0  0  0  0  0  0  0
    4.2002    1.1484    0.0988 C   0  0  1  0  0  0  0  0  0  0  0  0
   -2.5523   -0.4314   -0.3313 C   0  0  0  0  0  0  0  0  0  0  0  0
   -1.4305   -1.4387   -0.4998 C   0  0  1  0  0  0  0  0  0  0  0  0
   -3.5577    1.6694   -0.3045 C   0  0  0  0  0  0  0  0  0  0  0  0
   -3.8914   -0.7812   -0.2096 C   0  0  0  0  0  0  0  0  0  0  0  0
    0.9844   -0.6656   -0.6409 C   0  0  0  0  0  0  0  0  0  0  0  0
   -4.0713    3.8945   -1.9978 N   0  0  0  0  0  0  0  0  0  0  0  0
   -0.1923   -0.9498    0.1461 N   0  0  0  0  0  0  0  0  0  0  0  0
    7.6424    2.5605   -0.2348 N   0  0  0  0  0  4  0  0  0  0  0  0
    2.7791    2.4498    1.6341 N   0  0  0  0  0  4  0  0  0  0  0  0
    1.0592   -1.0526   -1.8401 O   0  0  0  0  0  0  0  0  0  0  0  0
    8.4729    3.2236    0.6361 O   0  0  0  0  0  1  0  0  0  0  0  0
    8.0303    2.3281   -1.3989 O   0  0  0  0  0  0  0  0  0  0  0  0
    2.6267    1.3781    2.4840 O   0  0  0  0  0  1  0  0  0  0  0  0
    2.2218    3.5311    1.9073 O   0  0  0  0  0  0  0  0  0  0  0  0
   -5.5893   -2.6203   -1.1382 O   0  0  0  0  0  0  0  0  0  0  0  0
   -4.9571   -2.7403    1.2374 O   0  0  0  0  0  0  0  0  0  0  0  0
   -4.8103    3.8595    0.5439 O   0  0  0  0  0  0  0  0  0  0  0  0
   -2.4201    4.0493    0.0595 O   0  0  0  0  0  0  0  0  0  0  0  0
    2.0487    0.0431   -0.0721 O   0  0  0  0  0  0  0  0  0  0  0  0
    6.3928    2.1578    0.1928 O   0  0  0  0  0  0  0  0  0  0  0  0
    3.5998    2.3714    0.5259 O   0  0  0  0  0  0  0  0  0  0  0  0
   -4.8471    0.5992   -0.1546 S   0  0  0  0  0  0  0  0  0  0  0  0
   -4.4737   -2.4239   -0.1498 S   0  0  0  0  0  6  0  0  0  0  0  0
   -3.7099    3.4137   -0.3776 S   0  0  0  0  0  6  0  0  0  0  0  0
  1  3  1  0
  8  2  1  6
  3 16  1  0
  4  8  1  0
  4 11  1  0
  5 10  1  0
  5 12  2  0
  9  6  1  6
  6 28  1  0
  7  9  1  0
  7 29  1  0
  8 32  1  0
  9 30  1  0
 10 11  1  0
 10 13  2  0
 11 16  1  1
 12 31  1  0
 12 33  1  0
 13 31  1  0
 13 32  1  0
 14 16  1  0
 14 19  2  0
 14 28  1  0
 15 33  1  0
 17 20  1  0
 17 21  2  0
 17 29  1  0
 18 22  1  0
 18 23  2  0
 18 30  1  0
 24 32  2  0
 25 32  2  0
 26 33  2  0
 27 33  2  0
M  CHG  4  17   1  18   1  20  -1  22  -1
M  END
$$$$
