3IBN_O60_A_300_
     RDKit          3D

 20 19  0  0  0  0  0  0  0  0999 V2000
   -4.9923    1.7701   14.5695 C   0  0  0  0  0  0  0  0  0  0  0  0
   -5.3807   -0.5915   16.1751 N   0  0  0  0  0  0  0  0  0  0  0  0
   -7.1926    1.0078   16.5395 O   0  0  0  0  0  0  0  0  0  0  0  0
   -5.8194    0.7898   16.8076 S   0  0  0  0  0  0  0  0  0  0  0  0
   -4.3536    2.9931   14.0338 C   0  0  0  0  0  0  0  0  0  0  0  0
   -2.0553   12.5235   10.7562 N   0  0  0  0  0  0  0  0  0  0  0  0
   -5.3499    0.8380   18.1474 O   0  0  0  0  0  0  0  0  0  0  0  0
   -2.4522   13.1185   12.1737 S   0  0  0  0  0  0  0  0  0  0  0  0
   -5.1400    4.2472   14.2803 C   0  0  0  0  0  0  0  0  0  0  0  0
   -5.0486    1.9051   16.0234 O   0  0  0  0  0  0  0  0  0  0  0  0
   -4.4991    5.4766   13.6976 C   0  0  0  0  0  0  0  0  0  0  0  0
   -2.4461   11.9185   13.1885 O   0  0  0  0  0  0  0  0  0  0  0  0
   -3.1850    5.8371   14.3252 C   0  0  0  0  0  0  0  0  0  0  0  0
   -1.4239   14.0080   12.6016 O   0  0  0  0  0  0  0  0  0  0  0  0
   -2.5364    7.0017   13.7010 C   0  0  0  0  0  0  0  0  0  0  0  0
   -3.8007   13.5768   12.1115 O   0  0  0  0  0  0  0  0  0  0  0  0
   -1.3050    7.4589   14.4250 C   0  0  0  0  0  0  0  0  0  0  0  0
   -0.7231    8.7392   13.8896 C   0  0  0  0  0  0  0  0  0  0  0  0
   -1.6196    9.9243   14.0783 C   0  0  0  0  0  0  0  0  0  0  0  0
   -1.2685   11.0643   13.2201 C   0  0  0  0  0  0  0  0  0  0  0  0
  2  4  1  0
  3  4  2  0
  1  5  1  0
  4  7  2  0
  6  8  1  0
  5  9  1  0
  1 10  1  0
  4 10  1  0
  9 11  1  0
  8 12  1  0
 11 13  1  0
  8 14  2  0
 13 15  1  0
  8 16  2  0
 15 17  1  0
 17 18  1  0
 18 19  1  0
 12 20  1  0
 19 20  1  0
M  END
$$$$
