4E6Q_0NV_A_1201_
     RDKit          3D

 25 29  0  0  0  0  0  0  0  0999 V2000
   10.9290   26.7340    8.8250 C   0  0  0  0  0  0  0  0  0  0  0  0
   10.7450   25.3240    8.2330 C   0  0  0  0  0  0  0  0  0  0  0  0
   11.6810   25.0660    7.1090 N   0  0  0  0  0  0  0  0  0  0  0  0
   13.0760   25.2240    7.5300 C   0  0  0  0  0  0  0  0  0  0  0  0
   13.3710   26.6530    8.0640 C   0  0  0  0  0  0  0  0  0  0  0  0
   12.3990   26.8140    9.2430 C   0  0  0  0  0  0  0  0  0  0  0  0
   12.6860   28.0830    9.8840 N   0  0  0  0  0  0  0  0  0  0  0  0
   12.9380   29.2600    9.2230 C   0  0  0  0  0  0  0  0  0  0  0  0
   13.1470   30.2120   10.0700 N   0  0  0  0  0  0  0  0  0  0  0  0
   13.0560   29.7260   11.3410 C   0  0  0  0  0  0  0  0  0  0  0  0
   13.1970   30.2810   12.6140 C   0  0  0  0  0  0  0  0  0  0  0  0
   13.0220   29.5710   13.6950 N   0  0  0  0  0  0  0  0  0  0  0  0
   12.7100   28.2780   13.6700 C   0  0  0  0  0  0  0  0  0  0  0  0
   12.5130   27.3680   14.6680 N   0  0  0  0  0  0  0  0  0  0  0  0
   12.2480   26.1380   14.0990 C   0  0  0  0  0  0  0  0  0  0  0  0
   12.2270   26.2030   12.7610 C   0  0  0  0  0  0  0  0  0  0  0  0
   12.5490   27.6070   12.4400 C   0  0  0  0  0  0  0  0  0  0  0  0
   12.7260   28.3370   11.2430 C   0  0  0  0  0  0  0  0  0  0  0  0
   11.5170   23.6890    6.5490 C   0  0  0  0  0  0  0  0  0  0  0  0
   10.0590   23.3470    6.2450 C   0  0  0  0  0  0  0  0  0  0  0  0
    9.3630   22.4140    7.0230 C   0  0  0  0  0  0  0  0  0  0  0  0
    8.0400   22.0880    6.7820 C   0  0  0  0  0  0  0  0  0  0  0  0
    7.4240   22.7170    5.7130 C   0  0  0  0  0  0  0  0  0  0  0  0
    8.0990   23.6470    4.9290 C   0  0  0  0  0  0  0  0  0  0  0  0
    9.4200   23.9690    5.1810 C   0  0  0  0  0  0  0  0  0  0  0  0
  1  2  1  0
  2  3  1  0
  3  4  1  0
  4  5  1  0
  1  6  1  0
  5  6  1  0
  6  7  1  0
  7  8  1  0
  8  9  2  0
  9 10  1  0
 10 11  2  0
 11 12  1  0
 12 13  2  0
 13 14  1  0
 14 15  1  0
 15 16  2  0
 13 17  1  0
 16 17  1  0
 17 18  2  0
 10 18  1  0
  7 18  1  0
  3 19  1  0
 19 20  1  0
 20 21  2  0
 21 22  1  0
 22 23  2  0
 23 24  1  0
 20 25  1  0
 24 25  2  0
M  END
$$$$
