3F19_HS6_A_0_
     RDKit          3D

 16 16  0  0  0  0  0  0  0  0999 V2000
   -0.3194    4.4640   72.5595 O   0  0  0  0  0  0  0  0  0  0  0  0
    0.3085    5.0192   71.3875 S   0  0  0  0  0  0  0  0  0  0  0  0
   -0.6589    5.5150   70.4503 O   0  0  0  0  0  0  0  0  0  0  0  0
    1.1564    3.8559   70.6768 N   0  0  0  0  0  0  0  0  0  0  0  0
    1.3265    3.8058   69.2369 C   0  0  0  0  0  0  0  0  0  0  0  0
    2.5089    4.6393   68.8307 C   0  0  0  0  0  0  0  0  0  0  0  0
    3.6085    4.4373   69.3237 O   0  0  0  0  0  0  0  0  0  0  0  0
    2.2890    5.5974   67.9389 N   0  0  0  0  0  0  0  0  0  0  0  0
    3.3508    6.4206   67.5870 O   0  0  0  0  0  0  0  0  0  0  0  0
    1.2168    6.2694   71.8573 C   0  0  0  0  0  0  0  0  0  0  0  0
    1.9029    6.2244   73.0775 C   0  0  0  0  0  0  0  0  0  0  0  0
    1.3119    7.4329   71.0787 C   0  0  0  0  0  0  0  0  0  0  0  0
    2.0833    8.5166   71.5070 C   0  0  0  0  0  0  0  0  0  0  0  0
    2.7654    8.4515   72.7248 C   0  0  0  0  0  0  0  0  0  0  0  0
    3.5090    9.4926   73.1532 F   0  0  0  0  0  0  0  0  0  0  0  0
    2.6765    7.3045   73.5091 C   0  0  0  0  0  0  0  0  0  0  0  0
  1  2  2  0
  2  3  2  0
  2  4  1  0
  4  5  1  0
  5  6  1  0
  6  7  2  0
  6  8  1  0
  8  9  2  0
  2 10  1  0
 10 11  2  0
 10 12  1  0
 12 13  2  0
 13 14  1  0
 14 15  1  0
 11 16  1  0
 14 16  2  0
M  END
$$$$
