3MYG_EML_A_1_
     RDKit          3D

 30 33  0  0  0  0  0  0  0  0999 V2000
    7.4784   30.0615    8.8686 C   0  0  0  0  0  0  0  0  0  0  0  0
    3.9153   34.1531    6.0109 N   0  0  0  0  0  0  0  0  0  0  0  0
    3.4344   37.4287   -0.0710 O   0  0  0  0  0  0  0  0  0  0  0  0
    3.6632   34.3083    3.2173 S   0  0  0  0  0  0  0  0  0  0  0  0
    6.6476   30.9522    5.9868 C   0  0  0  0  0  0  0  0  0  0  0  0
    4.9881   32.9023    8.5364 N   0  0  0  0  0  0  0  0  0  0  0  0
    6.2333   31.5181    4.8045 C   0  0  0  0  0  0  0  0  0  0  0  0
    6.1444   31.4914    7.1510 N   0  0  0  0  0  0  0  0  0  0  0  0
    0.2761   37.6394    0.7474 C   0  0  0  0  0  0  0  0  0  0  0  0
    8.5108   28.4778   10.0147 N   0  0  0  0  0  0  0  0  0  0  0  0
    4.8158   33.0975    6.0192 C   0  0  0  0  0  0  0  0  0  0  0  0
    9.2290   28.7844    8.9188 N   0  0  0  0  0  0  0  0  0  0  0  0
    5.2606   32.5289    7.2147 C   0  0  0  0  0  0  0  0  0  0  0  0
    2.7684   35.3947    2.5408 N   0  0  0  0  0  0  0  0  0  0  0  0
    6.4781   31.1166    8.4351 C   0  0  0  0  0  0  0  0  0  0  0  0
    5.3532   32.5902    4.8526 N   0  0  0  0  0  0  0  0  0  0  0  0
    8.6510   29.7556    8.1828 C   0  0  0  0  0  0  0  0  0  0  0  0
    1.4055   37.8190    1.6628 N   0  0  0  0  0  0  0  0  0  0  0  0
    5.7389   32.0265    9.2358 C   0  0  0  0  0  0  0  0  0  0  0  0
    7.4121   29.2344   10.0306 C   0  0  0  0  0  0  0  0  0  0  0  0
    3.3691   34.7414    4.8681 C   0  0  0  0  0  0  0  0  0  0  0  0
    2.4754   35.8166    4.8046 C   0  0  0  0  0  0  0  0  0  0  0  0
    1.2229   37.2520    3.0559 C   0  0  0  0  0  0  0  0  0  0  0  0
    2.1658   36.1518    3.4862 C   0  0  0  0  0  0  0  0  0  0  0  0
    2.2564   39.0078    1.4280 C   0  0  0  0  0  0  0  0  0  0  0  0
   -0.5482   36.3848    0.7524 C   0  0  0  0  0  0  0  0  0  0  0  0
    3.2036   38.8199    0.2207 C   0  0  0  0  0  0  0  0  0  0  0  0
    3.2566   39.2742    2.4997 C   0  0  0  0  0  0  0  0  0  0  0  0
    6.6892   31.0024    3.4838 C   0  0  0  0  0  0  0  0  0  0  0  0
    1.4252   40.3199    1.3525 C   0  0  0  0  0  0  0  0  0  0  0  0
  5  7  2  0
  5  8  1  0
  2 11  1  0
 10 12  1  0
  6 13  2  0
  8 13  1  0
 11 13  1  0
  4 14  1  0
  1 15  1  0
  8 15  1  0
 11 16  2  0
  7 16  1  0
  1 17  1  0
 12 17  2  0
  9 18  1  0
  6 19  1  0
 15 19  2  0
  1 20  2  0
 10 20  1  0
  2 21  1  0
  4 21  1  0
 21 22  2  0
 18 23  1  0
 22 24  1  0
 14 24  2  0
 23 24  1  0
 18 25  1  0
  9 26  1  0
 25 27  1  0
  3 27  1  0
 25 28  1  0
  7 29  1  0
 25 30  1  0
M  END
$$$$
