
     RDKit          3D

 30 33  0  0  0  0  0  0  0  0999 V2000
   -5.9045   -2.0735   -0.3244 C   0  0  0  0  0  0  0  0  0  0  0  0
    4.5963   -1.1699    3.4021 C   0  0  0  0  0  0  0  0  0  0  0  0
   -4.0538    2.1042    0.8180 C   0  0  0  0  0  0  0  0  0  0  0  0
   -6.2692    0.9389    0.9751 C   0  0  0  0  0  0  0  0  0  0  0  0
   -4.5665   -1.4206   -0.6769 C   0  0  0  0  0  0  0  0  0  0  0  0
   -1.2625   -0.6269    0.7010 C   0  0  0  0  0  0  0  0  0  0  0  0
    7.7612   -0.3876   -0.9428 C   0  0  0  0  0  0  0  0  0  0  0  0
    7.4492    1.2716   -2.3392 C   0  0  0  0  0  0  0  0  0  0  0  0
    4.3634    0.6950   -2.2278 C   0  0  0  0  0  0  0  0  0  0  0  0
    5.1155   -0.4122    1.0545 C   0  0  0  0  0  0  0  0  0  0  0  0
   -3.6732   -0.7770    1.5514 C   0  0  0  0  0  0  0  0  0  0  0  0
   -5.2380    1.4133   -1.2672 C   0  0  0  0  0  0  0  0  0  0  0  0
    4.1607   -0.7522    2.0293 C   0  0  0  0  0  0  0  0  0  0  0  0
    6.7790    0.4172   -1.4845 C   0  0  0  0  0  0  0  0  0  0  0  0
   -2.2313   -0.3965    1.7082 C   0  0  0  0  0  0  0  0  0  0  0  0
    5.3189    0.3448   -1.2873 C   0  0  0  0  0  0  0  0  0  0  0  0
    0.0089   -0.2329    1.0779 C   0  0  0  0  0  0  0  0  0  0  0  0
    2.3931   -0.2263    0.4983 C   0  0  0  0  0  0  0  0  0  0  0  0
    3.3608    0.0615   -0.4656 C   0  0  0  0  0  0  0  0  0  0  0  0
   -4.9305    0.9896    0.1946 C   0  0  0  0  0  0  0  0  0  0  0  0
    3.1243    0.5141   -1.7167 N   0  0  0  0  0  0  0  0  0  0  0  0
    8.9460    0.0012   -1.4449 N   0  0  0  0  0  0  0  0  0  0  0  0
    8.7684    1.0029   -2.2914 N   0  0  0  0  0  0  0  0  0  0  0  0
    2.8249   -0.6511    1.7318 N   0  0  0  0  0  0  0  0  0  0  0  0
    1.1300   -0.1086    0.1943 N   0  0  0  0  0  0  0  0  0  0  0  0
   -1.7814    0.1934    2.8483 N   0  0  0  0  0  0  0  0  0  0  0  0
   -4.1833   -0.3141    0.2367 N   0  0  0  0  0  0  0  0  0  0  0  0
    4.6671   -0.0463   -0.1747 N   0  0  0  0  0  0  0  0  0  0  0  0
   -4.0602    1.4382   -2.0313 O   0  0  0  0  0  0  0  0  0  0  0  0
   -0.1582    0.4472    2.5939 S   0  0  0  0  0  0  0  0  0  0  0  0
  1  5  1  0
  2 13  1  0
  3 20  1  0
  4 20  1  0
  5 27  1  0
  6 15  1  0
  6 17  2  0
  7 14  2  0
  7 22  1  0
  8 14  1  0
  8 23  2  0
  9 16  2  0
  9 21  1  0
 10 13  2  0
 10 28  1  0
 11 15  1  0
 11 27  1  0
 12 20  1  0
 12 29  1  0
 13 24  1  0
 14 16  1  0
 15 26  2  0
 16 28  1  0
 17 25  1  0
 17 30  1  0
 18 19  1  0
 18 24  1  0
 18 25  2  3
 19 21  2  0
 19 28  1  0
 20 27  1  0
 22 23  1  0
 26 30  1  0
M  END
$$$$
