3RR4_HRD_A_501_
     RDKit          3D

 18 20  0  0  0  0  0  0  0  0999 V2000
   17.4405   17.4417   17.3519 N   0  0  0  0  0  0  0  0  0  0  0  0
   19.5009   17.8156   18.1577 N   0  0  0  0  0  0  0  0  0  0  0  0
   18.7274   17.7395   17.0545 C   0  0  0  0  0  0  0  0  0  0  0  0
   18.3076   17.8510   14.6504 C   0  0  0  0  0  0  0  0  0  0  0  0
   18.6831   17.5476   19.1960 C   0  0  0  0  0  0  0  0  0  0  0  0
   18.9807   17.5020   20.5639 C   0  0  0  0  0  0  0  0  0  0  0  0
   17.8998   17.2092   21.4109 C   0  0  0  0  0  0  0  0  0  0  0  0
   15.8218   16.6453   23.1435 C   0  0  0  0  0  0  0  0  0  0  0  0
   16.6001   16.9876   20.9226 C   0  0  0  0  0  0  0  0  0  0  0  0
   16.3304   17.0373   19.5477 C   0  0  0  0  0  0  0  0  0  0  0  0
   17.4094   17.3292   18.7038 C   0  0  0  0  0  0  0  0  0  0  0  0
   19.1911   17.9361   15.8013 N   0  0  0  0  0  0  0  0  0  0  0  0
   18.0524   17.1599   22.7930 C   0  0  0  0  0  0  0  0  0  0  0  0
   19.2673   17.3667   23.3765 O   0  0  0  0  0  0  0  0  0  0  0  0
   17.0464   16.8756   23.6478 N   0  0  0  0  0  0  0  0  0  0  0  0
   14.8468   16.3785   24.0501 N   0  0  0  0  0  0  0  0  0  0  0  0
   13.4941   16.1556   23.5569 C   0  0  0  0  0  0  0  0  0  0  0  0
   15.6282   16.6987   21.8094 N   0  0  0  0  0  0  0  0  0  0  0  0
  1  3  2  0
  2  3  1  0
  2  5  1  0
  5  6  1  0
  6  7  2  0
  7  9  1  0
  9 10  2  0
  1 11  1  0
  5 11  2  0
 10 11  1  0
  4 12  1  0
  3 12  1  0
  7 13  1  0
 13 14  2  0
  8 15  1  0
 13 15  1  0
  8 16  1  0
 16 17  1  0
  9 18  1  0
  8 18  2  0
M  END
$$$$
