
     RDKit          3D

 18 20  0  0  0  0  0  0  0  0999 V2000
   -5.6733   -0.4379    0.2931 C   0  0  0  0  0  0  0  0  0  0  0  0
    5.6352    0.0826    1.2409 C   0  0  0  0  0  0  0  0  0  0  0  0
   -0.1289    0.4239   -1.6069 C   0  0  0  0  0  0  0  0  0  0  0  0
   -0.4104   -0.2973    1.1301 C   0  0  0  0  0  0  0  0  0  0  0  0
    1.0240    0.2920   -0.7895 C   0  0  0  0  0  0  0  0  0  0  0  0
    0.8743   -0.0713    0.5876 C   0  0  0  0  0  0  0  0  0  0  0  0
   -1.3706    0.1905   -1.0240 C   0  0  0  0  0  0  0  0  0  0  0  0
   -1.5059   -0.1552    0.2879 C   0  0  0  0  0  0  0  0  0  0  0  0
    2.3359    0.5037   -1.2692 C   0  0  0  0  0  0  0  0  0  0  0  0
   -3.4351   -0.0590   -0.5949 C   0  0  0  0  0  0  0  0  0  0  0  0
    3.2240    0.0112    0.8844 C   0  0  0  0  0  0  0  0  0  0  0  0
   -4.7237   -0.1033   -0.7611 N   0  0  0  0  0  0  0  0  0  0  0  0
    4.2547   -0.1198    1.6666 N   0  0  0  0  0  0  0  0  0  0  0  0
    1.9753   -0.2000    1.3789 N   0  0  0  0  0  0  0  0  0  0  0  0
   -2.5828    0.2563   -1.5995 N   0  0  0  0  0  0  0  0  0  0  0  0
   -2.8066   -0.3185    0.5822 N   0  0  0  0  0  0  0  0  0  0  0  0
    3.3852    0.3570   -0.4212 N   0  0  0  0  0  0  0  0  0  0  0  0
    2.6145    0.8615   -2.5905 O   0  0  0  0  0  0  0  0  0  0  0  0
  1 12  1  0
  2 13  1  0
  3  5  2  0
  3  7  1  0
  4  6  2  0
  4  8  1  0
  5  6  1  0
  5  9  1  0
  6 14  1  0
  7  8  2  0
  7 15  1  0
  8 16  1  0
  9 17  2  0
  9 18  1  0
 10 12  2  3
 10 15  1  0
 10 16  1  0
 11 13  2  3
 11 14  1  0
 11 17  1  0
M  END
$$$$
