
     RDKit          3D

 26 29  0  0  0  0  0  0  0  0999 V2000
   -1.6177    0.6888   -1.8703 C   0  0  0  0  0  0  0  0  0  0  0  0
    4.9803    2.8282    1.9514 C   0  0  0  0  0  0  0  0  0  0  0  0
    2.1151   -2.7891   -0.2767 C   0  0  0  0  0  0  0  0  0  0  0  0
    0.6245   -2.6960    0.0587 C   0  0  0  0  0  0  0  0  0  0  0  0
   -2.3297   -2.1129   -0.8214 C   0  0  0  0  0  0  0  0  0  0  0  0
   -3.6922   -1.3963   -0.8146 C   0  0  0  0  0  0  0  0  0  0  0  0
    0.2401    1.1624    0.5778 C   0  0  0  0  0  0  0  0  0  0  0  0
   -1.3089    1.2311    0.5945 C   0  0  0  0  0  0  0  0  0  0  0  0
    4.3222   -1.7210    0.1874 C   0  0  0  0  0  0  0  0  0  0  0  0
    3.1612    0.6539    1.0803 C   0  0  0  0  0  0  0  0  0  0  0  0
    2.9247   -1.6109    0.2219 C   0  0  0  0  0  0  0  0  0  0  0  0
    0.7993   -0.2859    0.7452 C   0  0  1  0  0  0  0  0  0  0  0  0
    0.1125   -1.2813   -0.2373 C   0  0  2  0  0  0  0  0  0  0  0  0
    2.3229   -0.3908    0.6326 C   0  0  0  0  0  0  0  0  0  0  0  0
   -1.4128   -1.1665   -0.0591 C   0  0  1  0  0  0  0  0  0  0  0  0
    5.1358   -0.6615    0.5960 C   0  0  0  0  0  0  0  0  0  0  0  0
    4.5626    0.5286    1.0501 C   0  0  0  0  0  0  0  0  0  0  0  0
   -3.4513    0.0186   -0.2433 C   0  0  1  0  0  0  0  0  0  0  0  0
   -1.9316    0.2352   -0.4067 C   0  0  2  0  0  0  0  0  0  0  0  0
   -6.0493    3.0548   -0.8323 N   0  0  0  0  0  0  0  0  0  0  0  0
    6.5239   -0.7864    0.5578 O   0  0  0  0  0  0  0  0  0  0  0  0
   -6.1914    0.9489    0.7444 O   0  0  0  0  0  0  0  0  0  0  0  0
   -4.3640    2.5487    1.1310 O   0  0  0  0  0  0  0  0  0  0  0  0
    5.4172    1.5625    1.4665 O   0  0  0  0  0  0  0  0  0  0  0  0
   -4.2049    0.9755   -0.9671 O   0  0  0  0  0  0  0  0  0  0  0  0
   -5.1968    1.8628    0.0835 S   0  0  0  0  0  6  0  0  0  0  0  0
 19  1  1  6
  2 24  1  0
  3  4  1  0
  3 11  1  0
 13  4  1  1
  5  6  1  0
 15  5  1  6
  6 18  1  0
  7  8  1  0
 12  7  1  6
  8 19  1  0
  9 11  2  0
  9 16  1  0
 10 14  2  0
 10 17  1  0
 11 14  1  0
 12 13  1  0
 12 14  1  0
 13 15  1  0
 15 19  1  0
 16 17  2  0
 16 21  1  0
 17 24  1  0
 18 19  1  0
 18 25  1  6
 20 26  1  0
 22 26  2  0
 23 26  2  0
 25 26  1  0
M  END
$$$$
