
     RDKit          3D

 21 23  0  0  0  0  0  0  0  0999 V2000
   -3.7038   -2.1420    1.4603 C   0  0  0  0  0  0  0  0  0  0  0  0
   -6.2860    1.1683   -1.2133 C   0  0  0  0  0  0  0  0  0  0  0  0
    5.3715    2.0144   -0.6458 C   0  0  0  0  0  0  0  0  0  0  0  0
    3.9942    2.0266   -0.8834 C   0  0  0  0  0  0  0  0  0  0  0  0
    5.8998    1.2185    0.3735 C   0  0  0  0  0  0  0  0  0  0  0  0
   -0.8799   -1.9973   -0.0649 C   0  0  0  0  0  0  0  0  0  0  0  0
    0.5012   -2.1824   -0.0384 C   0  0  0  0  0  0  0  0  0  0  0  0
    3.6696    0.4487    0.9274 C   0  0  0  0  0  0  0  0  0  0  0  0
   -3.8756   -1.0380    0.4641 C   0  0  0  0  0  0  0  0  0  0  0  0
   -5.0716    0.4808   -0.6902 C   0  0  0  0  0  0  0  0  0  0  0  0
    3.1335    1.2293   -0.1136 C   0  0  0  0  0  0  0  0  0  0  0  0
    5.0486    0.4380    1.1669 C   0  0  0  0  0  0  0  0  0  0  0  0
   -1.3806   -0.6928   -0.1692 C   0  0  0  0  0  0  0  0  0  0  0  0
   -2.8291   -0.4155   -0.2356 C   0  0  0  0  0  0  0  0  0  0  0  0
    0.8381    0.1513   -0.2312 C   0  0  0  0  0  0  0  0  0  0  0  0
    1.3313   -1.1122   -0.1245 N   0  0  0  0  0  0  0  0  0  0  0  0
   -5.1142   -0.5451    0.1863 N   0  0  0  0  0  0  0  0  0  0  0  0
    1.7184    1.2766   -0.3621 N   0  0  0  0  0  0  0  0  0  0  0  0
   -0.5072    0.3454   -0.2698 N   0  0  0  0  0  0  0  0  0  0  0  0
    5.5611   -0.3464    2.1978 O   0  0  0  0  0  0  0  0  0  0  0  0
   -3.5000    0.8044   -1.1840 S   0  0  0  0  0  0  0  0  0  0  0  0
  1  9  1  0
  2 10  1  0
  3  4  2  0
  3  5  1  0
  4 11  1  0
  5 12  2  0
  6  7  2  0
  6 13  1  0
  7 16  1  0
  8 11  2  0
  8 12  1  0
  9 14  2  0
  9 17  1  0
 10 17  2  0
 10 21  1  0
 11 18  1  0
 12 20  1  0
 13 14  1  0
 13 19  2  0
 14 21  1  0
 15 16  2  0
 15 18  1  0
 15 19  1  0
M  END
$$$$
