1PXJ_CK2_A_500_A
     RDKit          3D

 14 15  0  0  0  0  0  0  0  0999 V2000
   12.3142   42.4585    7.6021 C   0  0  0  0  0  0  0  0  0  0  0  0
   12.7677   42.9149    8.9884 C   0  0  0  0  0  0  0  0  0  0  0  0
   13.2400   44.4239    9.4869 S   0  0  0  0  0  0  0  0  0  0  0  0
   12.8401   42.1142    9.9303 N   0  0  0  0  0  0  0  0  0  0  0  0
   13.2500   42.5866   11.1054 C   0  0  0  0  0  0  0  0  0  0  0  0
   13.2632   41.5677   12.0811 C   0  0  0  0  0  0  0  0  0  0  0  0
   13.5128   43.8749   11.1165 C   0  0  0  0  0  0  0  0  0  0  0  0
   13.9579   44.7273   12.2218 C   0  0  0  0  0  0  0  0  0  0  0  0
   13.4554   44.5662   13.4423 N   0  0  0  0  0  0  0  0  0  0  0  0
   14.8887   45.7296   11.9520 C   0  0  0  0  0  0  0  0  0  0  0  0
   15.2680   46.4951   13.0278 C   0  0  0  0  0  0  0  0  0  0  0  0
   14.7563   46.2944   14.2684 N   0  0  0  0  0  0  0  0  0  0  0  0
   13.8839   45.3206   14.3581 C   0  0  0  0  0  0  0  0  0  0  0  0
   13.4191   45.0481   15.5392 N   0  0  0  0  0  0  0  0  0  0  0  0
  1  2  1  0
  2  3  1  0
  2  4  2  0
  4  5  1  0
  5  6  1  0
  3  7  1  0
  5  7  2  0
  7  8  1  0
  8  9  2  0
  8 10  1  0
 10 11  2  0
 11 12  1  0
  9 13  1  0
 12 13  2  0
 13 14  1  0
M  END
$$$$
