1PXM_CK5_A_500_A
     RDKit          3D

 21 23  0  0  0  0  0  0  0  0999 V2000
   17.3240   44.2610    8.6060 O   0  0  0  0  0  0  0  0  0  0  0  0
   17.6000   45.2300    9.5260 C   0  0  0  0  0  0  0  0  0  0  0  0
   16.8520   45.3760   10.7270 C   0  0  0  0  0  0  0  0  0  0  0  0
   17.1670   46.4200   11.6750 C   0  0  0  0  0  0  0  0  0  0  0  0
   18.2390   47.2920   11.3720 C   0  0  0  0  0  0  0  0  0  0  0  0
   18.9920   47.1490   10.1780 C   0  0  0  0  0  0  0  0  0  0  0  0
   18.6650   46.1180    9.2610 C   0  0  0  0  0  0  0  0  0  0  0  0
   16.4860   46.6860   12.9470 N   0  0  0  0  0  0  0  0  0  0  0  0
   15.3970   46.0000   13.5540 C   0  0  0  0  0  0  0  0  0  0  0  0
   15.2400   46.2990   14.8440 N   0  0  0  0  0  0  0  0  0  0  0  0
   14.2560   45.7080   15.5500 C   0  0  0  0  0  0  0  0  0  0  0  0
   14.6440   45.1440   12.9070 N   0  0  0  0  0  0  0  0  0  0  0  0
   13.6330   44.5040   13.5490 C   0  0  0  0  0  0  0  0  0  0  0  0
   13.3940   44.7700   14.9350 C   0  0  0  0  0  0  0  0  0  0  0  0
   12.8660   43.5650   12.7860 C   0  0  0  0  0  0  0  0  0  0  0  0
   11.6170   42.9260   12.8830 C   0  0  0  0  0  0  0  0  0  0  0  0
   10.5430   43.0470   13.9610 C   0  0  0  0  0  0  0  0  0  0  0  0
   13.6190   43.0010   11.3280 S   0  0  0  0  0  0  0  0  0  0  0  0
   12.3360   42.0210   10.9520 C   0  0  0  0  0  0  0  0  0  0  0  0
   11.3470   42.0570   11.8280 N   0  0  0  0  0  0  0  0  0  0  0  0
   12.3820   41.1970    9.7010 C   0  0  0  0  0  0  0  0  0  0  0  0
  1  2  1  0
  2  3  2  0
  3  4  1  0
  4  5  2  0
  5  6  1  0
  2  7  1  0
  6  7  2  0
  4  8  1  0
  8  9  1  0
  9 10  2  0
 10 11  1  0
  9 12  1  0
 12 13  2  0
 11 14  2  0
 13 14  1  0
 13 15  1  0
 15 16  2  0
 16 17  1  0
 15 18  1  0
 18 19  1  0
 16 20  1  0
 19 20  2  0
 19 21  1  0
M  END
$$$$
