
     RDKit          3D

 16 17  0  0  0  0  0  0  0  0999 V2000
   -2.7268   -1.1512   -0.4410 C   0  0  0  0  0  0  0  0  0  0  0  0
   -3.3783    0.8040    0.9968 C   0  0  0  0  0  0  0  0  0  0  0  0
    0.2269    0.1814   -1.6123 C   0  0  0  0  0  0  0  0  0  0  0  0
    5.0074   -0.2174    0.4045 C   0  0  0  0  0  0  0  0  0  0  0  0
    2.9733   -0.0410    1.9117 C   0  0  0  0  0  0  0  0  0  0  0  0
   -2.3570    0.2740   -0.0161 C   0  0  0  0  0  0  0  0  0  0  0  0
    3.6007   -0.0967    0.6736 C   0  0  0  0  0  0  0  0  0  0  0  0
    1.4625    0.0747   -2.2829 C   0  0  0  0  0  0  0  0  0  0  0  0
    0.2106    0.1839   -0.2000 C   0  0  0  0  0  0  0  0  0  0  0  0
    2.5703   -0.0117   -0.2267 C   0  0  0  0  0  0  0  0  0  0  0  0
    1.5104    0.0663   -4.0342 Cl  0  0  0  0  0  0  0  0  0  0  0  0
    6.1399   -0.3145    0.1877 N   0  0  0  0  0  0  0  0  0  0  0  0
    1.6328    0.0716    1.7391 N   0  0  0  0  0  0  0  0  0  0  0  0
   -1.0078    0.2946    0.5642 N   0  0  0  0  0  0  0  0  0  0  0  0
    2.6266   -0.0215   -1.5796 N   0  0  0  0  0  0  0  0  0  0  0  0
    1.4108    0.0881    0.4334 N   0  0  0  0  0  0  0  0  0  0  0  0
  1  6  1  0
  2  6  1  0
  3  8  1  0
  3  9  2  0
  4  7  1  0
  4 12  3  0
  5  7  1  0
  5 13  2  0
  6 14  1  0
  7 10  2  0
  8 11  1  0
  8 15  2  0
  9 14  1  0
  9 16  1  0
 10 15  1  0
 10 16  1  0
 13 16  1  0
M  END
$$$$
