2VTM_LZM_A_1299_
     RDKit          3D

 11 12  0  0  0  0  0  0  0  0999 V2000
   24.1845    4.5461   62.0670 N   0  0  0  0  0  0  0  0  0  0  0  0
   25.1248    4.5625   62.7123 C   0  0  0  0  0  0  0  0  0  0  0  0
   26.2949    4.5812   63.5178 C   0  0  0  0  0  0  0  0  0  0  0  0
   26.8539    3.5105   64.1623 C   0  0  0  0  0  0  0  0  0  0  0  0
   27.9436    3.8566   64.8407 N   0  0  0  0  0  0  0  0  0  0  0  0
   28.0747    5.1885   64.6222 N   0  0  0  0  0  0  0  0  0  0  0  0
   29.0346    5.9982   65.0787 C   0  0  0  0  0  0  0  0  0  0  0  0
   29.0039    7.3294   64.7400 C   0  0  0  0  0  0  0  0  0  0  0  0
   27.9878    7.7942   63.9309 C   0  0  0  0  0  0  0  0  0  0  0  0
   27.0281    6.9935   63.4534 N   0  0  0  0  0  0  0  0  0  0  0  0
   27.0851    5.6950   63.8100 C   0  0  0  0  0  0  0  0  0  0  0  0
  1  2  3  0
  2  3  1  0
  3  4  1  0
  4  5  2  0
  5  6  1  0
  6  7  1  0
  7  8  2  0
  8  9  1  0
  9 10  2  0
  3 11  2  0
  6 11  1  0
 10 11  1  0
M  END
$$$$
