
     RDKit          3D

 29 31  0  0  0  0  0  0  0  0999 V2000
   -5.3125    0.7939    1.2345 C   0  0  0  0  0  0  0  0  0  0  0  0
    7.0014    0.2253   -1.8790 C   0  0  0  0  0  0  0  0  0  0  0  0
    7.8882    0.8768    0.2572 C   0  0  0  0  0  0  0  0  0  0  0  0
   -4.5594    0.7163   -0.0905 C   0  0  0  0  0  0  0  0  0  0  0  0
   -1.1755    4.3651    1.2701 C   0  0  0  0  0  0  0  0  0  0  0  0
   -1.1401    3.2677    2.1343 C   0  0  0  0  0  0  0  0  0  0  0  0
   -1.8281    4.2644    0.0384 C   0  0  0  0  0  0  0  0  0  0  0  0
   -1.7557    2.0675    1.7678 C   0  0  0  0  0  0  0  0  0  0  0  0
   -2.4449    3.0657   -0.3326 C   0  0  0  0  0  0  0  0  0  0  0  0
   -2.9276   -2.3603   -1.4713 C   0  0  0  0  0  0  0  0  0  0  0  0
   -3.6456   -2.4552    0.8427 C   0  0  0  0  0  0  0  0  0  0  0  0
   -0.0773    0.3088   -0.7048 C   0  0  0  0  0  0  0  0  0  0  0  0
   -0.2224   -1.3205    1.0811 C   0  0  0  0  0  0  0  0  0  0  0  0
   -3.5313   -3.5988   -1.7083 C   0  0  0  0  0  0  0  0  0  0  0  0
   -4.2483   -3.6937    0.6041 C   0  0  0  0  0  0  0  0  0  0  0  0
    1.3169    0.2910   -0.6091 C   0  0  0  0  0  0  0  0  0  0  0  0
    1.1717   -1.3383    1.1758 C   0  0  0  0  0  0  0  0  0  0  0  0
    5.6915   -0.1330    0.1419 C   0  0  0  0  0  0  0  0  0  0  0  0
    4.2634    0.1754   -0.3072 C   0  0  0  0  0  0  0  0  0  0  0  0
   -2.4075    1.9555    0.5272 C   0  0  0  0  0  0  0  0  0  0  0  0
   -2.9922   -1.7775   -0.1973 C   0  0  0  0  0  0  0  0  0  0  0  0
   -0.8588   -0.4862    0.1496 C   0  0  0  0  0  0  0  0  0  0  0  0
   -4.1944   -4.2679   -0.6737 C   0  0  0  0  0  0  0  0  0  0  0  0
    1.9524   -0.5342    0.3379 C   0  0  0  0  0  0  0  0  0  0  0  0
   -3.0585    0.6793    0.1352 C   0  0  0  0  0  0  0  0  0  0  0  0
   -2.3404   -0.4748    0.0514 C   0  0  0  0  0  0  0  0  0  0  0  0
    6.6600    0.7499   -0.5445 N   0  0  0  0  0  0  0  0  0  0  0  0
   -4.7924   -5.5007   -0.9240 O   0  0  0  0  0  0  0  0  0  0  0  0
    3.3472   -0.5853    0.4762 O   0  0  0  0  0  0  0  0  0  0  0  0
  1  4  1  0
  2 27  1  0
  3 27  1  0
  4 25  1  0
  5  6  2  0
  5  7  1  0
  6  8  1  0
  7  9  2  0
  8 20  2  0
  9 20  1  0
 10 14  2  0
 10 21  1  0
 11 15  1  0
 11 21  2  0
 12 16  2  0
 12 22  1  0
 13 17  1  0
 13 22  2  0
 14 23  1  0
 15 23  2  0
 16 24  1  0
 17 24  2  0
 18 19  1  0
 18 27  1  0
 19 29  1  0
 20 25  1  0
 21 26  1  0
 22 26  1  0
 23 28  1  0
 24 29  1  0
 25 26  2  0
M  END
$$$$
