
     RDKit          3D

 17 18  0  0  0  0  0  0  0  0999 V2000
    0.2216   -2.4534    0.2062 C   0  0  0  0  0  0  0  0  0  0  0  0
   -0.3584   -1.0335    2.1755 C   0  0  0  0  0  0  0  0  0  0  0  0
   -2.2054   -1.1144   -0.7751 C   0  0  0  0  0  0  0  0  0  0  0  0
   -1.4964    1.0236    0.1158 C   0  0  0  0  0  0  0  0  0  0  0  0
    1.5059    0.1156   -1.0266 C   0  0  0  0  0  0  0  0  0  0  0  0
    2.1507    0.2288    1.3056 C   0  0  0  0  0  0  0  0  0  0  0  0
   -3.3112   -0.4949   -1.3652 C   0  0  0  0  0  0  0  0  0  0  0  0
   -2.6032    1.6367   -0.4762 C   0  0  0  0  0  0  0  0  0  0  0  0
    2.6546    0.8286   -1.3783 C   0  0  0  0  0  0  0  0  0  0  0  0
    3.2986    0.9420    0.9471 C   0  0  0  0  0  0  0  0  0  0  0  0
   -1.2642   -0.3614   -0.0353 C   0  0  0  0  0  0  0  0  0  0  0  0
    1.2204   -0.1843    0.3238 C   0  0  0  0  0  0  0  0  0  0  0  0
   -3.5123    0.8788   -1.2205 C   0  0  0  0  0  0  0  0  0  0  0  0
    3.5520    1.2455   -0.3945 C   0  0  0  0  0  0  0  0  0  0  0  0
   -0.0448   -0.9977    0.6601 C   0  0  0  0  0  0  0  0  0  0  0  0
   -4.6191    1.4793   -1.8163 O   0  0  0  0  0  0  0  0  0  0  0  0
    4.6928    1.9566   -0.7598 O   0  0  0  0  0  0  0  0  0  0  0  0
  1 15  1  0
  2 15  1  0
  3  7  2  0
  3 11  1  0
  4  8  1  0
  4 11  2  0
  5  9  2  0
  5 12  1  0
  6 10  1  0
  6 12  2  0
  7 13  1  0
  8 13  2  0
  9 14  1  0
 10 14  2  0
 11 15  1  0
 12 15  1  0
 13 16  1  0
 14 17  1  0
M  END
$$$$
