
     RDKit          3D

  8  8  0  0  0  0  0  0  0  0999 V2000
    0.9535    0.2937    0.8301 C   0  0  0  0  0  0  0  0  0  0  0  0
   -0.3984    0.3538    1.1835 C   0  0  0  0  0  0  0  0  0  0  0  0
    0.3384   -0.4238   -1.4012 C   0  0  0  0  0  0  0  0  0  0  0  0
   -1.0136   -0.3637   -1.0479 C   0  0  0  0  0  0  0  0  0  0  0  0
    1.3254   -0.0958   -0.4648 C   0  0  0  0  0  0  0  0  0  0  0  0
   -1.3862    0.0248    0.2440 C   0  0  0  0  0  0  0  0  0  0  0  0
    2.6683   -0.1597   -0.8293 O   0  0  0  0  0  0  0  0  0  0  0  0
   -2.7361    0.0806    0.5832 O   0  0  0  0  0  0  0  0  0  0  0  0
  1  2  2  0
  1  5  1  0
  2  6  1  0
  3  4  1  0
  3  5  2  0
  4  6  2  0
  5  7  1  0
  6  8  1  0
M  END
$$$$
