4E3H_HQE_A_303_B
     RDKit          3D

  8  8  0  0  0  0  0  0  0  0999 V2000
   14.8416    4.7414   16.1544 C   0  0  0  0  0  0  0  0  0  0  0  0
   14.7568    3.6768   17.0312 C   0  0  0  0  0  0  0  0  0  0  0  0
   15.7183    2.6892   16.8644 C   0  0  0  0  0  0  0  0  0  0  0  0
   15.6941    1.5687   17.6478 O   0  0  0  0  0  0  0  0  0  0  0  0
   16.6968    2.8112   15.8741 C   0  0  0  0  0  0  0  0  0  0  0  0
   16.7676    3.8568   14.9943 C   0  0  0  0  0  0  0  0  0  0  0  0
   15.8061    4.8464   15.1571 C   0  0  0  0  0  0  0  0  0  0  0  0
   15.8251    5.9179   14.3694 O   0  0  0  0  0  0  0  0  0  0  0  0
  1  2  2  0
  2  3  1  0
  3  4  1  0
  3  5  2  0
  5  6  1  0
  6  7  2  0
  1  7  1  0
  7  8  1  0
M  END
$$$$
