3QCQ_3Q0_A_370_
     RDKit          3D

 20 22  0  0  0  0  0  0  0  0999 V2000
  -40.7832   16.5014   12.8760 C   0  0  0  0  0  0  0  0  0  0  0  0
  -41.9541   17.1667   12.5947 C   0  0  0  0  0  0  0  0  0  0  0  0
  -43.0872   15.1834   11.9035 C   0  0  0  0  0  0  0  0  0  0  0  0
  -44.5507   18.5693   12.1793 C   0  0  0  0  0  0  0  0  0  0  0  0
  -40.7741   15.1282   12.6661 C   0  0  0  0  0  0  0  0  0  0  0  0
  -43.0834   16.5456   12.1092 C   0  0  0  0  0  0  0  0  0  0  0  0
  -41.9212   14.5210   12.1978 C   0  0  0  0  0  0  0  0  0  0  0  0
  -44.2911   17.2734   11.7857 C   0  0  0  0  0  0  0  0  0  0  0  0
  -45.7738   19.0997   11.8140 C   0  0  0  0  0  0  0  0  0  0  0  0
  -39.8241   14.0744   12.8170 C   0  0  0  0  0  0  0  0  0  0  0  0
  -46.3366   17.1364   10.7777 C   0  0  0  0  0  0  0  0  0  0  0  0
  -45.1455   20.8876   14.3504 C   0  0  0  0  0  0  0  0  0  0  0  0
  -44.9791   21.0326   12.8577 C   0  0  0  0  0  0  0  0  0  0  0  0
  -45.1721   16.5559   11.0839 N   0  0  0  0  0  0  0  0  0  0  0  0
  -46.6687   18.3892   11.1163 N   0  0  0  0  0  0  0  0  0  0  0  0
  -40.3528   12.8966   12.4589 N   0  0  0  0  0  0  0  0  0  0  0  0
  -41.6142   13.1932   12.0937 N   0  0  0  0  0  0  0  0  0  0  0  0
  -38.5534   14.2720   13.2688 N   0  0  0  0  0  0  0  0  0  0  0  0
  -47.2491   16.3753   10.0447 N   0  0  0  0  0  0  0  0  0  0  0  0
  -46.1044   20.4122   12.1801 N   0  0  0  0  0  0  0  0  0  0  0  0
  1  2  2  0
  1  5  1  0
  2  6  1  0
  3  6  2  0
  3  7  1  0
  5  7  1  0
  4  8  2  0
  6  8  1  0
  4  9  1  0
  5 10  2  0
 12 13  1  0
  8 14  1  0
 11 14  2  0
  9 15  2  0
 11 15  1  0
 10 16  1  0
  7 17  2  0
 16 17  1  0
 10 18  1  0
 11 19  1  0
  9 20  1  0
 13 20  1  0
M  END
$$$$
