2C3L_IDZ_A_1274_
     RDKit          3D

 18 21  0  0  0  0  0  0  0  0999 V2000
    7.3060   -3.1521   18.4948 C   0  0  0  0  0  0  0  0  0  0  0  0
    7.3861   -4.3766   17.8151 C   0  0  0  0  0  0  0  0  0  0  0  0
    6.2610   -5.2046   17.7185 C   0  0  0  0  0  0  0  0  0  0  0  0
    5.0468   -4.8131   18.2818 C   0  0  0  0  0  0  0  0  0  0  0  0
    4.9686   -3.5932   18.9165 C   0  0  0  0  0  0  0  0  0  0  0  0
    3.9723   -2.8999   19.6090 C   0  0  0  0  0  0  0  0  0  0  0  0
    2.6642   -3.3360   19.7765 C   0  0  0  0  0  0  0  0  0  0  0  0
    1.7215   -2.6076   20.4068 N   0  0  0  0  0  0  0  0  0  0  0  0
    0.6058   -3.3016   20.3800 C   0  0  0  0  0  0  0  0  0  0  0  0
   -0.6625   -3.0476   20.9038 C   0  0  0  0  0  0  0  0  0  0  0  0
   -1.6855   -3.9969   20.7196 C   0  0  0  0  0  0  0  0  0  0  0  0
   -1.4052   -5.1914   20.0465 C   0  0  0  0  0  0  0  0  0  0  0  0
   -0.1260   -5.4430   19.5167 C   0  0  0  0  0  0  0  0  0  0  0  0
    0.8806   -4.4851   19.6790 C   0  0  0  0  0  0  0  0  0  0  0  0
    5.6845   -1.6932   19.7404 N   0  0  0  0  0  0  0  0  0  0  0  0
    6.0843   -2.7778   19.0450 C   0  0  0  0  0  0  0  0  0  0  0  0
    2.1704   -4.4805   19.3338 N   0  0  0  0  0  0  0  0  0  0  0  0
    4.4720   -1.7453   20.0706 N   0  0  0  0  0  0  0  0  0  0  0  0
  1  2  2  0
  2  3  1  0
  3  4  2  0
  4  5  1  0
  5  6  1  0
  6  7  1  0
  7  8  1  0
  8  9  1  0
  9 10  2  0
 10 11  1  0
 11 12  2  0
 12 13  1  0
  9 14  1  0
 13 14  2  0
  1 16  1  0
  5 16  2  0
 15 16  1  0
  7 17  2  0
 14 17  1  0
  6 18  2  0
 15 18  1  0
M  END
$$$$
