
     RDKit          3D

 27 31  0  0  0  0  0  0  0  0999 V2000
   -6.3823    0.4349    2.1358 C   0  0  0  0  0  0  0  0  0  0  0  0
    7.8157    0.8424    0.2894 C   0  0  0  0  0  0  0  0  0  0  0  0
    7.3030    1.4198   -0.8958 C   0  0  0  0  0  0  0  0  0  0  0  0
    6.9537    0.2054    1.2023 C   0  0  0  0  0  0  0  0  0  0  0  0
    5.9241    1.3646   -1.1773 C   0  0  0  0  0  0  0  0  0  0  0  0
   -0.7136    0.2825   -1.0686 C   0  0  0  0  0  0  0  0  0  0  0  0
   -3.4773   -0.5259   -2.0364 C   0  0  0  0  0  0  0  0  0  0  0  0
    0.6364    0.2727   -0.6719 C   0  0  0  0  0  0  0  0  0  0  0  0
   -4.8127   -0.5120   -2.4413 C   0  0  0  0  0  0  0  0  0  0  0  0
   -1.3498   -0.9345    0.9600 C   0  0  0  0  0  0  0  0  0  0  0  0
   -4.1656   -0.0611    0.2393 C   0  0  0  0  0  0  0  0  0  0  0  0
   -1.7179   -0.3187   -0.2605 C   0  0  0  0  0  0  0  0  0  0  0  0
   -3.1388   -0.3013   -0.6918 C   0  0  0  0  0  0  0  0  0  0  0  0
    0.9532   -0.3452    0.5368 C   0  0  0  0  0  0  0  0  0  0  0  0
    5.5969    0.1714    0.8885 C   0  0  0  0  0  0  0  0  0  0  0  0
    5.1007    0.7268   -0.2524 C   0  0  0  0  0  0  0  0  0  0  0  0
   -0.0049   -0.9245    1.3189 C   0  0  0  0  0  0  0  0  0  0  0  0
   -5.8318   -0.2740   -1.5154 C   0  0  0  0  0  0  0  0  0  0  0  0
   -5.5161   -0.0456   -0.1641 C   0  0  0  0  0  0  0  0  0  0  0  0
    2.1403   -0.5430    1.2239 C   0  0  0  0  0  0  0  0  0  0  0  0
    3.4951   -0.1193    0.8327 C   0  0  0  0  0  0  0  0  0  0  0  0
    4.5935   -0.3698    1.5891 N   0  0  0  0  0  0  0  0  0  0  0  0
    3.7681    0.5576   -0.3150 N   0  0  0  0  0  0  0  0  0  0  0  0
    0.5617   -1.4469    2.4176 N   0  0  0  0  0  0  0  0  0  0  0  0
    1.8688   -1.2182    2.3674 N   0  0  0  0  0  0  0  0  0  0  0  0
   -7.1547   -0.2684   -1.9574 O   0  0  0  0  0  0  0  0  0  0  0  0
   -6.5604    0.1932    0.7438 O   0  0  0  0  0  0  0  0  0  0  0  0
  1 27  1  0
  2  3  2  0
  2  4  1  0
  3  5  1  0
  4 15  2  0
  5 16  2  0
  6  8  2  0
  6 12  1  0
  7  9  2  0
  7 13  1  0
  8 14  1  0
  9 18  1  0
 10 12  2  0
 10 17  1  0
 11 13  2  0
 11 19  1  0
 12 13  1  0
 14 17  2  0
 14 20  1  0
 15 16  1  0
 15 22  1  0
 16 23  1  0
 17 24  1  0
 18 19  2  0
 18 26  1  0
 19 27  1  0
 20 21  1  0
 20 25  2  0
 21 22  1  0
 21 23  2  0
 24 25  1  0
M  END
$$$$
