3R4N_FU5_B_901_
     RDKit          3D

 23 24  0  0  0  0  0  0  0  0999 V2000
    9.3003  -24.6500   11.7222 C   0  0  0  0  0  0  0  0  0  0  0  0
    8.6863  -24.2684   13.0311 C   0  0  0  0  0  0  0  0  0  0  0  0
    9.2435  -23.7439   10.5914 C   0  0  0  0  0  0  0  0  0  0  0  0
    9.9581  -25.9293   11.5916 C   0  0  0  0  0  0  0  0  0  0  0  0
    7.3100  -24.1082   13.1145 C   0  0  0  0  0  0  0  0  0  0  0  0
    9.5088  -24.0741   14.1366 N   0  0  0  0  0  0  0  0  0  0  0  0
    9.8468  -24.1437    9.3416 C   0  0  0  0  0  0  0  0  0  0  0  0
    8.5981  -22.5322   10.8000 O   0  0  0  0  0  0  0  0  0  0  0  0
   10.5456  -26.2946   10.3432 C   0  0  0  0  0  0  0  0  0  0  0  0
   10.0624  -27.0484   12.9101 Cl  0  0  0  0  0  0  0  0  0  0  0  0
    6.8113  -23.7503   14.3340 C   0  0  0  0  0  0  0  0  0  0  0  0
    8.9490  -23.7235   15.3088 C   0  0  0  0  0  0  0  0  0  0  0  0
   10.4917  -25.4102    9.2216 C   0  0  0  0  0  0  0  0  0  0  0  0
    8.4219  -21.5530    9.9162 C   0  0  0  0  0  0  0  0  0  0  0  0
    7.6199  -23.5567   15.4306 N   0  0  0  0  0  0  0  0  0  0  0  0
    5.3169  -23.5557   14.4883 C   0  0  0  0  0  0  0  0  0  0  0  0
    9.7703  -23.5229   16.4222 N   0  0  0  0  0  0  0  0  0  0  0  0
    7.6592  -20.3659   10.5265 C   0  0  0  0  0  0  0  0  0  0  0  0
    6.3927  -20.8672   11.2515 C   0  0  0  0  0  0  0  0  0  0  0  0
    5.5671  -19.7554   11.9182 C   0  0  0  0  0  0  0  0  0  0  0  0
    5.2147  -18.7768   11.0096 F   0  0  0  0  0  0  0  0  0  0  0  0
    4.4101  -20.2850   12.4525 F   0  0  0  0  0  0  0  0  0  0  0  0
    6.2821  -19.1675   12.9396 F   0  0  0  0  0  0  0  0  0  0  0  0
  1  2  1  0
  1  3  2  0
  1  4  1  0
  2  5  2  0
  2  6  1  0
  3  7  1  0
  3  8  1  0
  4  9  2  0
  4 10  1  0
  5 11  1  0
  6 12  2  0
  7 13  2  0
  9 13  1  0
  8 14  1  0
 11 15  2  0
 12 15  1  0
 11 16  1  0
 12 17  1  0
 14 18  1  0
 18 19  1  0
 19 20  1  0
 20 21  1  0
 20 22  1  0
 20 23  1  0
M  END
$$$$
