3R4O_FU3_B_901_
     RDKit          3D

 33 36  0  0  0  0  0  0  0  0999 V2000
   10.0620  -24.0130    9.3540 C   0  0  0  0  0  0  0  0  0  0  0  0
   10.6090  -26.2320   10.2720 C   0  0  0  0  0  0  0  0  0  0  0  0
   -0.3400  -22.3350   11.7420 C   0  0  0  0  0  0  0  0  0  0  0  0
    1.1290  -21.9840   11.4160 C   0  0  0  0  0  0  0  0  0  0  0  0
    0.2210  -23.2720   12.8310 C   0  0  0  0  0  0  0  0  0  0  0  0
    6.3590  -24.1600   12.0080 C   0  0  0  0  0  0  0  0  0  0  0  0
    5.3610  -23.5040   14.1310 C   0  0  0  0  0  0  0  0  0  0  0  0
    8.0740  -20.2430   10.4450 C   0  0  0  0  0  0  0  0  0  0  0  0
    6.8180  -20.7800   11.1320 C   0  0  0  0  0  0  0  0  0  0  0  0
    8.8650  -21.3830    9.8220 C   0  0  0  0  0  0  0  0  0  0  0  0
   10.6070  -25.2920    9.2040 C   0  0  0  0  0  0  0  0  0  0  0  0
    9.4860  -23.6390   10.5770 C   0  0  0  0  0  0  0  0  0  0  0  0
   10.0360  -25.8750   11.5260 C   0  0  0  0  0  0  0  0  0  0  0  0
    7.4060  -24.0180   13.0420 C   0  0  0  0  0  0  0  0  0  0  0  0
    6.8660  -23.6520   14.2590 C   0  0  0  0  0  0  0  0  0  0  0  0
    9.4550  -24.5810   11.7050 C   0  0  0  0  0  0  0  0  0  0  0  0
    8.8010  -24.1890   12.9830 C   0  0  0  0  0  0  0  0  0  0  0  0
    8.9690  -23.6480   15.2540 C   0  0  0  0  0  0  0  0  0  0  0  0
    1.4610  -23.3980   11.9280 C   0  0  0  0  0  0  0  0  0  0  0  0
    3.9190  -23.7800   11.9620 C   0  0  0  0  0  0  0  0  0  0  0  0
    6.0560  -19.7270   11.8580 C   0  0  0  0  0  0  0  0  0  0  0  0
    9.7800  -23.4640   16.3690 N   0  0  0  0  0  0  0  0  0  0  0  0
    7.6070  -23.4580   15.3850 N   0  0  0  0  0  0  0  0  0  0  0  0
    9.5880  -24.0050   14.0850 N   0  0  0  0  0  0  0  0  0  0  0  0
    2.7560  -23.4590   12.6520 N   0  0  0  0  0  0  0  0  0  0  0  0
    5.1190  -23.8280   12.7020 N   0  0  0  0  0  0  0  0  0  0  0  0
    3.8920  -24.0120   10.7470 O   0  0  0  0  0  0  0  0  0  0  0  0
    8.9180  -22.4130   10.8170 O   0  0  0  0  0  0  0  0  0  0  0  0
    5.6220  -18.7720   11.0260 F   0  0  0  0  0  0  0  0  0  0  0  0
    4.9850  -20.2650   12.4490 F   0  0  0  0  0  0  0  0  0  0  0  0
    6.8060  -19.1500   12.8000 F   0  0  0  0  0  0  0  0  0  0  0  0
   11.2710  -25.6930    7.6830 Cl  0  0  0  0  0  0  0  0  0  0  0  0
   10.0720  -27.0480   12.8090 Cl  0  0  0  0  0  0  0  0  0  0  0  0
  3  4  1  0
  3  5  1  0
  8  9  1  0
  8 10  1  0
  1 11  2  0
  2 11  1  0
  1 12  1  0
  2 13  2  0
  6 14  1  0
  7 15  1  0
 14 15  2  0
 12 16  2  0
 13 16  1  0
 16 17  1  0
 14 17  1  0
  4 19  1  0
  5 19  1  0
  9 21  1  0
 18 22  1  0
 15 23  1  0
 18 23  2  0
 17 24  2  0
 18 24  1  0
 19 25  1  0
 20 25  1  0
  6 26  1  0
 20 26  1  0
  7 26  1  0
 20 27  2  0
 10 28  1  0
 12 28  1  0
 21 29  1  0
 21 30  1  0
 21 31  1  0
 11 32  1  0
 13 33  1  0
M  END
$$$$
