
     RDKit          3D

 23 24  0  0  0  0  0  0  0  0999 V2000
   -4.5679    2.4116    0.0893 C   0  0  0  0  0  0  0  0  0  0  0  0
    1.0523   -1.7499   -2.8937 C   0  0  0  0  0  0  0  0  0  0  0  0
    2.6983    0.8021    0.6810 C   0  0  0  0  0  0  0  0  0  0  0  0
   -0.2660   -1.6623   -3.3362 C   0  0  0  0  0  0  0  0  0  0  0  0
    1.3788   -1.3937   -1.5855 C   0  0  0  0  0  0  0  0  0  0  0  0
    4.0163    1.0918    1.4211 C   0  0  0  0  0  0  0  0  0  0  0  0
    1.9833   -0.4553    1.1926 C   0  0  0  0  0  0  0  0  0  0  0  0
   -2.7745    0.7682   -0.5361 C   0  0  0  0  0  0  0  0  0  0  0  0
   -3.7407    1.1953    0.3813 C   0  0  0  0  0  0  0  0  0  0  0  0
   -1.2717   -1.2135   -2.4756 C   0  0  0  0  0  0  0  0  0  0  0  0
   -1.9966   -0.3518   -0.2233 C   0  0  0  0  0  0  0  0  0  0  0  0
    0.3836   -0.9310   -0.7015 C   0  0  0  0  0  0  0  0  0  0  0  0
   -0.9517   -0.8369   -1.1512 C   0  0  0  0  0  0  0  0  0  0  0  0
   -3.1023   -0.5395    1.8651 C   0  0  0  0  0  0  0  0  0  0  0  0
    5.1463    0.1055    1.0961 C   0  0  0  0  0  0  0  0  0  0  0  0
   -2.9283   -1.2006   -3.0754 Cl  0  0  0  0  0  0  0  0  0  0  0  0
    6.3336    0.5922    1.6117 F   0  0  0  0  0  0  0  0  0  0  0  0
    4.8959   -1.1278    1.6684 F   0  0  0  0  0  0  0  0  0  0  0  0
    5.2862   -0.0428   -0.2725 F   0  0  0  0  0  0  0  0  0  0  0  0
   -3.2467   -1.1501    2.9974 N   0  0  0  0  0  0  0  0  0  0  0  0
   -3.8775    0.5406    1.5694 N   0  0  0  0  0  0  0  0  0  0  0  0
   -2.1731   -0.9733    0.9725 N   0  0  0  0  0  0  0  0  0  0  0  0
    0.6784   -0.5530    0.6219 O   0  0  0  0  0  0  0  0  0  0  0  0
  1  9  1  0
  2  4  2  0
  2  5  1  0
  3  6  1  0
  3  7  1  0
  4 10  1  0
  5 12  2  0
  6 15  1  0
  7 23  1  0
  8  9  2  0
  8 11  1  0
  9 21  1  0
 10 13  2  0
 10 16  1  0
 11 13  1  0
 11 22  2  0
 12 13  1  0
 12 23  1  0
 14 20  2  3
 14 21  1  0
 14 22  1  0
 15 17  1  0
 15 18  1  0
 15 19  1  0
M  END
$$$$
