
     RDKit          3D

 33 36  0  0  0  0  0  0  0  0999 V2000
   -4.0725    4.1334    0.8327 C   0  0  0  0  0  0  0  0  0  0  0  0
    4.0592    0.7492    0.1739 C   0  0  0  0  0  0  0  0  0  0  0  0
   -4.3963    2.8008    1.4949 C   0  0  0  0  0  0  0  0  0  0  0  0
   -4.2571    3.5003   -0.5409 C   0  0  0  0  0  0  0  0  0  0  0  0
    4.8398    2.0703    0.1976 C   0  0  0  0  0  0  0  0  0  0  0  0
    2.5499    1.0053    0.2158 C   0  0  0  0  0  0  0  0  0  0  0  0
    1.3080   -2.9448    3.3643 C   0  0  0  0  0  0  0  0  0  0  0  0
    2.1424   -0.8233    2.5535 C   0  0  0  0  0  0  0  0  0  0  0  0
   -1.4071   -0.7869   -0.2892 C   0  0  0  0  0  0  0  0  0  0  0  0
   -2.2079   -1.3748   -2.5122 C   0  0  0  0  0  0  0  0  0  0  0  0
    1.9690   -1.7375    3.5951 C   0  0  0  0  0  0  0  0  0  0  0  0
   -4.5756    2.1628    0.1221 C   0  0  0  0  0  0  0  0  0  0  0  0
   -0.6042   -1.8970   -0.8655 C   0  0  0  0  0  0  0  0  0  0  0  0
    0.8098   -3.2446    2.0935 C   0  0  0  0  0  0  0  0  0  0  0  0
   -1.0643   -2.2276   -2.1120 C   0  0  0  0  0  0  0  0  0  0  0  0
    1.6555   -1.1111    1.2628 C   0  0  0  0  0  0  0  0  0  0  0  0
    0.9722   -2.3244    1.0381 C   0  0  0  0  0  0  0  0  0  0  0  0
    0.4428   -2.6301   -0.3049 C   0  0  0  0  0  0  0  0  0  0  0  0
    0.5029   -3.9712   -2.2747 C   0  0  0  0  0  0  0  0  0  0  0  0
   -3.4295    0.4655   -1.2349 C   0  0  0  0  0  0  0  0  0  0  0  0
    6.3527    1.8450    0.1484 C   0  0  0  0  0  0  0  0  0  0  0  0
    2.5834   -1.3683    5.1965 Cl  0  0  0  0  0  0  0  0  0  0  0  0
   -0.0465   -4.7666    1.8651 Cl  0  0  0  0  0  0  0  0  0  0  0  0
    6.7635    1.1043    1.2430 F   0  0  0  0  0  0  0  0  0  0  0  0
    6.9982    3.0679    0.1702 F   0  0  0  0  0  0  0  0  0  0  0  0
    6.7009    1.1775   -1.0124 F   0  0  0  0  0  0  0  0  0  0  0  0
    1.0371   -4.9552   -2.9249 N   0  0  0  0  0  0  0  0  0  0  0  0
   -3.5509    1.1524   -0.1346 N   0  0  0  0  0  0  0  0  0  0  0  0
   -0.5237   -3.2503   -2.8219 N   0  0  0  0  0  0  0  0  0  0  0  0
    0.9709   -3.6577   -1.0299 N   0  0  0  0  0  0  0  0  0  0  0  0
   -2.3817   -0.5060   -1.3470 N   0  0  0  0  0  0  0  0  0  0  0  0
   -4.3036    0.6465   -2.3107 O   0  0  0  0  0  0  0  0  0  0  0  0
    1.8305   -0.2275    0.1818 O   0  0  0  0  0  0  0  0  0  0  0  0
  1  3  1  0
  1  4  1  0
  2  5  1  0
  2  6  1  0
  3 12  1  0
  4 12  1  0
  5 21  1  0
  6 33  1  0
  7 11  2  0
  7 14  1  0
  8 11  1  0
  8 16  2  0
  9 13  1  0
  9 31  1  0
 10 15  1  0
 10 31  1  0
 11 22  1  0
 12 28  1  0
 13 15  2  0
 13 18  1  0
 14 17  2  0
 14 23  1  0
 15 29  1  0
 16 17  1  0
 16 33  1  0
 17 18  1  0
 18 30  2  0
 19 27  2  3
 19 29  1  0
 19 30  1  0
 20 28  2  3
 20 31  1  0
 20 32  1  0
 21 24  1  0
 21 25  1  0
 21 26  1  0
M  END
$$$$
