
     RDKit          3D

 28 32  0  0  0  0  0  0  0  0999 V2000
    4.6341    1.6340   -0.6856 C   0  0  0  0  0  0  0  0  0  0  0  0
    5.6447   -0.6771   -0.8858 C   0  0  0  0  0  0  0  0  0  0  0  0
    3.6099   -1.8340    2.0489 C   0  0  0  0  0  0  0  0  0  0  0  0
    2.4779   -2.3186    1.1691 C   0  0  0  0  0  0  0  0  0  0  0  0
   -4.8889    2.2016   -0.9790 C   0  0  0  0  0  0  0  0  0  0  0  0
   -1.3114    1.4524   -1.2616 C   0  0  0  0  0  0  0  0  0  0  0  0
   -0.6673    1.2902    1.1778 C   0  0  0  0  0  0  0  0  0  0  0  0
   -6.1877    2.4750   -1.4146 C   0  0  0  0  0  0  0  0  0  0  0  0
    3.9101   -0.4242    1.5671 C   0  0  0  0  0  0  0  0  0  0  0  0
   -0.4328    0.2606   -1.6434 C   0  0  0  0  0  0  0  0  0  0  0  0
    0.6640    0.7274    0.6191 C   0  0  0  0  0  0  0  0  0  0  0  0
   -5.7289   -1.7288    0.0132 C   0  0  0  0  0  0  0  0  0  0  0  0
   -2.3488   -1.1406    0.7164 C   0  0  0  0  0  0  0  0  0  0  0  0
    4.3348    0.1421   -0.8451 C   0  0  0  0  0  0  0  0  0  0  0  0
   -1.8356    1.3014    0.1677 C   0  0  0  0  0  0  0  0  0  0  0  0
   -4.9135    0.8937   -0.5502 C   0  0  0  0  0  0  0  0  0  0  0  0
   -4.4046   -1.2972    0.2332 C   0  0  0  0  0  0  0  0  0  0  0  0
    2.6551   -1.5374   -0.1249 C   0  0  1  0  0  0  0  0  0  0  0  0
   -3.9973   -0.0142   -0.0295 C   0  0  0  0  0  0  0  0  0  0  0  0
   -6.2610    0.4401   -0.7625 C   0  0  0  0  0  0  0  0  0  0  0  0
    1.3322   -1.2828   -0.8191 C   0  0  0  0  0  0  0  0  0  0  0  0
   -7.0270    1.4096   -1.2859 N   0  0  0  0  0  0  0  0  0  0  0  0
   -6.6496   -0.8396   -0.4850 N   0  0  0  0  0  0  0  0  0  0  0  0
   -3.3770   -2.0290    0.7026 N   0  0  0  0  0  0  0  0  0  0  0  0
    0.4894   -0.1315   -0.5689 N   0  0  0  0  0  0  0  0  0  0  0  0
    3.3701   -0.2907    0.2009 N   0  0  0  0  0  0  0  0  0  0  0  0
   -2.6948    0.1097    0.2884 N   0  0  0  0  0  0  0  0  0  0  0  0
    0.9486   -2.1472   -1.6552 O   0  0  0  0  0  0  0  0  0  0  0  0
  1 14  1  0
  2 14  1  0
  3  4  1  0
  3  9  1  0
  4 18  1  0
  5  8  2  0
  5 16  1  0
  6 10  1  0
  6 15  1  0
  7 11  1  0
  7 15  1  0
  8 22  1  0
  9 26  1  0
 10 25  1  0
 11 25  1  0
 12 17  2  0
 12 23  1  0
 13 24  2  0
 13 27  1  0
 14 26  1  0
 15 27  1  0
 16 19  2  0
 16 20  1  0
 17 19  1  0
 17 24  1  0
 18 21  1  1
 18 26  1  0
 19 27  1  0
 20 22  2  0
 20 23  1  0
 21 25  1  0
 21 28  2  0
M  END
$$$$
