
     RDKit          3D

 12 13  0  0  0  0  0  0  0  0999 V2000
   -1.7382   -0.6307    0.2377 C   0  0  0  0  0  0  0  0  0  0  0  0
   -1.5171    0.8776    0.3159 C   0  0  0  0  0  0  0  0  0  0  0  0
   -0.7034   -1.1056   -0.7926 C   0  0  2  0  0  0  0  0  0  0  0  0
    0.6373   -1.5216   -0.1321 C   0  0  1  0  0  0  0  0  0  0  0  0
    1.2337   -0.3525    0.7107 C   0  0  2  0  0  0  0  0  0  0  0  0
    1.0527    1.0256    0.0016 C   0  0  1  0  0  0  0  0  0  0  0  0
   -0.3538    1.1384   -0.6662 C   0  0  1  0  0  0  0  0  0  0  0  0
   -0.4375    0.0528   -1.6417 N   0  0  0  0  0  0  0  0  0  0  0  0
    0.4375   -2.6545    0.6731 O   0  0  0  0  0  0  0  0  0  0  0  0
    2.5874   -0.5865    1.0088 O   0  0  0  0  0  0  0  0  0  0  0  0
    1.3169    2.1000    0.8716 O   0  0  0  0  0  0  0  0  0  0  0  0
   -0.4958    2.3755   -1.3209 O   0  0  0  0  0  0  0  0  0  0  0  0
  1  2  1  0
  3  1  1  1
  2  7  1  0
  3  4  1  0
  3  8  1  0
  4  5  1  0
  4  9  1  1
  5  6  1  0
  5 10  1  6
  6  7  1  0
  6 11  1  1
  7  8  1  0
  7 12  1  6
M  END
$$$$
