
     RDKit          3D

 22 23  0  0  0  0  0  0  0  0999 V2000
   -7.4433    0.0239    0.5240 C   0  0  0  0  0  0  0  0  0  0  0  0
   -6.6602    0.6461   -0.6311 C   0  0  0  0  0  0  0  0  0  0  0  0
   -5.3935    1.3874   -0.1699 C   0  0  0  0  0  0  0  0  0  0  0  0
   -4.3431    0.5059    0.5301 C   0  0  0  0  0  0  0  0  0  0  0  0
   -3.7759   -0.5914   -0.3868 C   0  0  0  0  0  0  0  0  0  0  0  0
   -2.6214   -1.3662    0.2696 C   0  0  0  0  0  0  0  0  0  0  0  0
   -1.2994   -0.5844    0.2456 C   0  0  0  0  0  0  0  0  0  0  0  0
   -0.1564   -1.4173    0.8361 C   0  0  0  0  0  0  0  0  0  0  0  0
    2.4924   -0.5705   -2.4143 C   0  0  0  0  0  0  0  0  0  0  0  0
    3.4883    0.3152   -1.6128 C   0  0  2  0  0  0  0  0  0  0  0  0
    4.9407   -0.1896   -1.6356 C   0  0  1  0  0  0  0  0  0  0  0  0
    5.8374    0.7086   -0.7266 C   0  0  1  0  0  0  0  0  0  0  0  0
    5.0941    1.3774    0.4792 C   0  0  2  0  0  0  0  0  0  0  0  0
    3.8423    0.5889    0.9247 C   0  0  1  0  0  0  0  0  0  0  0  0
    1.8018   -0.4509   -0.2322 C   0  0  0  0  0  0  0  0  0  0  0  0
    1.0880   -0.6530    0.8332 N   0  0  0  0  0  0  0  0  0  0  0  0
    2.9978    0.3010   -0.2391 N   0  0  0  0  0  0  0  0  0  0  0  0
    4.9752   -1.5279   -1.2003 O   0  0  0  0  0  0  0  0  0  0  0  0
    6.9782    0.0074   -0.2930 O   0  0  0  0  0  0  0  0  0  0  0  0
    4.7102    2.6802    0.1125 O   0  0  0  0  0  0  0  0  0  0  0  0
    4.2414   -0.6114    1.5358 O   0  0  0  0  0  0  0  0  0  0  0  0
    1.4873   -0.9468   -1.4794 O   0  0  0  0  0  0  0  0  0  0  0  0
  1  2  1  0
  2  3  1  0
  3  4  1  0
  4  5  1  0
  5  6  1  0
  6  7  1  0
  7  8  1  0
  8 16  1  0
 10  9  1  6
  9 22  1  0
 10 11  1  0
 10 17  1  0
 11 12  1  0
 11 18  1  1
 12 13  1  0
 12 19  1  1
 13 14  1  0
 13 20  1  6
 14 17  1  0
 14 21  1  6
 15 16  2  0
 15 17  1  0
 15 22  1  0
M  END
$$$$
