3HVG_EV0_A_441_
     RDKit          3D

 11 11  0  0  0  0  0  0  0  0999 V2000
   17.9616   41.8821   -9.4127 O   0  0  0  0  0  0  0  0  0  0  0  0
   17.9188   40.9415   -8.6543 C   0  0  0  0  0  0  0  0  0  0  0  0
   18.9796   39.9246   -8.6624 C   0  0  0  0  0  0  0  0  0  0  0  0
   16.8634   40.8143   -7.7662 N   0  0  0  0  0  0  0  0  0  0  0  0
   16.7957   39.7433   -6.8861 C   0  0  0  0  0  0  0  0  0  0  0  0
   15.7361   39.6489   -6.0157 N   0  0  0  0  0  0  0  0  0  0  0  0
   17.7244   38.8273   -6.8762 N   0  0  0  0  0  0  0  0  0  0  0  0
   18.8773   38.9006   -7.8014 C   0  0  0  0  0  0  0  0  0  0  0  0
   19.9259   37.8128   -7.7486 C   0  0  0  0  0  0  0  0  0  0  0  0
   21.2700   38.3721   -7.2781 C   0  0  0  0  0  0  0  0  0  0  0  0
   22.3042   37.2444   -7.2254 C   0  0  0  0  0  0  0  0  0  0  0  0
  1  2  2  0
  2  3  1  0
  2  4  1  0
  4  5  1  0
  5  6  1  0
  5  7  2  0
  3  8  2  0
  7  8  1  0
  8  9  1  0
  9 10  1  0
 10 11  1  0
M  END
$$$$
