
     RDKit          3D

 25 28  0  0  0  0  0  0  0  0999 V2000
   -4.6048    3.4727    0.7698 C   0  0  0  0  0  0  0  0  0  0  0  0
    3.7093    2.6894    1.2249 C   0  0  0  0  0  0  0  0  0  0  0  0
   -4.2203    1.9844   -2.7053 C   0  0  0  0  0  0  0  0  0  0  0  0
   -4.6627    2.7843   -1.6499 C   0  0  0  0  0  0  0  0  0  0  0  0
   -3.2661    0.9892   -2.4810 C   0  0  0  0  0  0  0  0  0  0  0  0
   -1.7806   -1.0716    0.1975 C   0  0  0  0  0  0  0  0  0  0  0  0
   -0.6837   -0.4862   -1.8788 C   0  0  0  0  0  0  0  0  0  0  0  0
   -0.8173   -2.0577    0.4280 C   0  0  0  0  0  0  0  0  0  0  0  0
    0.2783   -1.4723   -1.6463 C   0  0  0  0  0  0  0  0  0  0  0  0
   -3.1900    1.5962   -0.1349 C   0  0  0  0  0  0  0  0  0  0  0  0
    1.7232   -3.5863    1.1709 C   0  0  0  0  0  0  0  0  0  0  0  0
    3.1649   -0.5530   -0.5727 C   0  0  0  0  0  0  0  0  0  0  0  0
   -4.1618    2.5850   -0.3555 C   0  0  0  0  0  0  0  0  0  0  0  0
   -1.7179   -0.2664   -0.9527 C   0  0  0  0  0  0  0  0  0  0  0  0
    0.2503   -2.2341   -0.4696 C   0  0  0  0  0  0  0  0  0  0  0  0
   -2.7383    0.7854   -1.1931 C   0  0  0  0  0  0  0  0  0  0  0  0
    1.2933   -3.3126   -0.2668 C   0  0  1  0  0  0  0  0  0  0  0  0
    2.6887   -2.8843    0.2216 C   0  0  1  0  0  0  0  0  0  0  0  0
    2.9339   -1.4158    0.4957 C   0  0  0  0  0  0  0  0  0  0  0  0
    3.4132    0.7932   -0.3183 C   0  0  0  0  0  0  0  0  0  0  0  0
    3.2840    0.3810    2.0154 C   0  0  0  0  0  0  0  0  0  0  0  0
    3.3268    0.8044    3.2430 N   0  0  0  0  0  0  0  0  0  0  0  0
    3.0424   -0.9402    1.7679 N   0  0  0  0  0  0  0  0  0  0  0  0
    3.4830    1.2544    0.9716 N   0  0  0  0  0  0  0  0  0  0  0  0
    3.5719    1.5766   -1.2948 O   0  0  0  0  0  0  0  0  0  0  0  0
  1 13  1  0
  2 24  1  0
  3  4  2  0
  3  5  1  0
  4 13  1  0
  5 16  2  0
  6  8  2  0
  6 14  1  0
  7  9  1  0
  7 14  2  0
  8 15  1  0
  9 15  2  0
 10 13  2  0
 10 16  1  0
 11 17  1  0
 11 18  1  0
 12 19  2  0
 12 20  1  0
 14 16  1  0
 17 15  1  1
 17 18  1  0
 18 19  1  1
 19 23  1  0
 20 24  1  0
 20 25  2  0
 21 22  2  3
 21 23  1  0
 21 24  1  0
M  END
$$$$
