3VV8_B02_A_502_
     RDKit          3D

 25 28  0  0  0  0  0  0  0  0999 V2000
   17.1560   41.4330  -10.0600 O   0  0  0  0  0  0  0  0  0  0  0  0
   16.9830   40.4190   -9.3280 C   0  0  0  0  0  0  0  0  0  0  0  0
   16.4740   40.5600   -8.0150 N   0  0  0  0  0  0  0  0  0  0  0  0
   16.1690   41.9090   -7.5200 C   0  0  0  0  0  0  0  0  0  0  0  0
   16.2940   39.4040   -7.2040 C   0  0  0  0  0  0  0  0  0  0  0  0
   15.8150   39.5110   -5.9390 N   0  0  0  0  0  0  0  0  0  0  0  0
   16.6060   38.1740   -7.6960 N   0  0  0  0  0  0  0  0  0  0  0  0
   17.0930   38.0140   -8.9550 C   0  0  0  0  0  0  0  0  0  0  0  0
   17.2860   39.1320   -9.7850 C   0  0  0  0  0  0  0  0  0  0  0  0
   17.4150   36.6480   -9.4600 C   0  0  0  0  0  0  0  0  0  0  0  0
   18.3720   36.7600  -10.6580 C   0  0  0  0  0  0  0  0  0  0  0  0
   18.8940   36.2700   -9.3080 C   0  0  0  0  0  0  0  0  0  0  0  0
   19.7130   37.2360   -8.4960 C   0  0  0  0  0  0  0  0  0  0  0  0
   20.9400   37.6940   -8.9700 C   0  0  0  0  0  0  0  0  0  0  0  0
   21.7350   38.5480   -8.2030 C   0  0  0  0  0  0  0  0  0  0  0  0
   21.3180   38.9510   -6.9370 C   0  0  0  0  0  0  0  0  0  0  0  0
   20.1030   38.4810   -6.4390 C   0  0  0  0  0  0  0  0  0  0  0  0
   19.3200   37.6220   -7.2120 C   0  0  0  0  0  0  0  0  0  0  0  0
   22.1800   39.8620   -6.1160 C   0  0  0  0  0  0  0  0  0  0  0  0
   23.5200   40.0180   -6.4630 C   0  0  0  0  0  0  0  0  0  0  0  0
   24.3370   40.8520   -5.7040 C   0  0  0  0  0  0  0  0  0  0  0  0
   23.8410   41.5250   -4.5960 C   0  0  0  0  0  0  0  0  0  0  0  0
   22.5130   41.3630   -4.2270 C   0  0  0  0  0  0  0  0  0  0  0  0
   21.9840   42.1000   -3.0250 C   0  0  0  0  0  0  0  0  0  0  0  0
   21.6860   40.5290   -4.9830 C   0  0  0  0  0  0  0  0  0  0  0  0
  1  2  2  0
  2  3  1  0
  3  4  1  0
  3  5  1  0
  5  6  1  0
  5  7  2  0
  7  8  1  0
  2  9  1  0
  8  9  2  0
  8 10  1  0
 10 11  1  0
 11 12  1  0
 10 12  1  0
 12 13  1  0
 13 14  2  0
 14 15  1  0
 15 16  2  0
 16 17  1  0
 13 18  1  0
 17 18  2  0
 16 19  1  0
 19 20  2  0
 20 21  1  0
 21 22  2  0
 22 23  1  0
 23 24  1  0
 19 25  1  0
 23 25  2  0
M  END
$$$$
