
     RDKit          3D

 11 11  0  0  0  0  0  0  0  0999 V2000
   -3.4566    0.0489   -0.5899 C   0  0  0  0  0  0  0  0  0  0  0  0
   -1.9665   -0.2784   -0.6087 C   0  0  0  0  0  0  0  0  0  0  0  0
   -1.1829    0.6556    0.3183 C   0  0  0  0  0  0  0  0  0  0  0  0
    1.1344    0.9358   -0.6296 C   0  0  0  0  0  0  0  0  0  0  0  0
    0.2826    0.3150    0.2921 C   0  0  0  0  0  0  0  0  0  0  0  0
    2.4795    0.5719   -0.6481 C   0  0  0  0  0  0  0  0  0  0  0  0
    2.0981   -0.9826    1.0957 C   0  0  0  0  0  0  0  0  0  0  0  0
    2.5534   -1.8866    1.9027 N   0  0  0  0  0  0  0  0  0  0  0  0
    0.7797   -0.6409    1.1289 N   0  0  0  0  0  0  0  0  0  0  0  0
    2.9351   -0.3754    0.2122 N   0  0  0  0  0  0  0  0  0  0  0  0
    3.3511    1.1769   -1.5475 O   0  0  0  0  0  0  0  0  0  0  0  0
  1  2  1  0
  2  3  1  0
  3  5  1  0
  4  5  2  0
  4  6  1  0
  5  9  1  0
  6 10  2  0
  6 11  1  0
  7  8  2  3
  7  9  1  0
  7 10  1  0
M  END
$$$$
