
     RDKit          3D

 12 12  0  0  0  0  0  0  0  0999 V2000
    0.7682   -1.5882   -0.6115 C   0  0  0  0  0  0  0  0  0  0  0  0
   -0.4994   -1.2076   -0.8483 C   0  0  0  0  0  0  0  0  0  0  0  0
   -0.1805    0.8169    0.6298 C   0  0  0  0  0  0  0  0  0  0  0  0
    1.7315   -0.7617    0.2140 C   0  0  2  0  0  0  0  0  0  0  0  0
    1.3169    0.7205    0.3022 C   0  0  2  0  0  0  0  0  0  0  0  0
   -2.4611    0.0244   -0.0355 C   0  0  0  0  0  0  0  0  0  0  0  0
   -1.0275    0.1680   -0.4953 C   0  0  2  0  0  0  0  0  0  0  0  0
    3.0368   -0.8810   -0.2918 O   0  0  0  0  0  0  0  0  0  0  0  0
    2.0688    1.3517    1.3056 O   0  0  0  0  0  0  0  0  0  0  0  0
   -3.3992    0.5766   -0.6723 O   0  0  0  0  0  0  0  0  0  0  0  0
   -2.7540   -0.7377    1.0928 O   0  0  0  0  0  0  0  0  0  0  0  0
   -0.9640    0.9546   -1.6633 O   0  0  0  0  0  0  0  0  0  0  0  0
  1  2  2  0
  1  4  1  0
  2  7  1  0
  3  5  1  0
  3  7  1  0
  4  5  1  0
  4  8  1  6
  5  9  1  1
  6  7  1  0
  6 10  2  0
  6 11  1  0
  7 12  1  6
M  END
$$$$
