3N86_RJP_U_147_
     RDKit          3D

 23 24  0  0  0  0  0  0  0  0999 V2000
  -10.8860   73.7010   69.0380 O   0  0  0  0  0  0  0  0  0  0  0  0
   -9.1600   69.9740   62.7620 O   0  0  0  0  0  0  0  0  0  0  0  0
   -7.2430   71.0520   62.2900 O   0  0  0  0  0  0  0  0  0  0  0  0
   -4.4040   71.2820   66.5810 O   0  0  0  0  0  0  0  0  0  0  0  0
   -6.5690   71.5600   68.5330 O   0  0  0  0  0  0  0  0  0  0  0  0
   -7.6070   68.8990   64.9550 O   0  0  0  0  0  0  0  0  0  0  0  0
  -10.4270   72.5410   66.9840 C   0  0  0  0  0  0  0  0  0  0  0  0
   -9.0940   72.2130   67.6070 C   0  0  0  0  0  0  0  0  0  0  0  0
   -8.4650   71.1420   65.4680 C   0  0  0  0  0  0  0  0  0  0  0  0
  -14.4480   77.3280   68.4510 C   0  0  0  0  0  0  0  0  0  0  0  0
  -13.3630   76.9580   69.2450 C   0  0  0  0  0  0  0  0  0  0  0  0
  -14.7290   76.6750   67.2390 C   0  0  0  0  0  0  0  0  0  0  0  0
  -12.5690   75.9030   68.8070 C   0  0  0  0  0  0  0  0  0  0  0  0
  -13.9450   75.6190   66.8050 C   0  0  0  0  0  0  0  0  0  0  0  0
   -6.1020   70.8950   64.7960 C   0  0  0  0  0  0  0  0  0  0  0  0
  -12.0730   74.2100   67.1450 N   0  0  0  0  0  0  0  0  0  0  0  0
  -11.1330   73.5590   67.8370 C   0  0  0  0  0  0  0  0  0  0  0  0
   -8.0120   70.4630   63.1050 C   0  0  0  0  0  0  0  0  0  0  0  0
   -8.0630   71.6050   66.6820 C   0  0  0  0  0  0  0  0  0  0  0  0
  -12.8750   75.2260   67.6090 C   0  0  0  0  0  0  0  0  0  0  0  0
   -5.7280   70.7860   66.3170 C   0  0  0  0  0  0  0  0  0  0  0  0
   -6.7920   71.4380   67.1820 C   0  0  0  0  0  0  0  0  0  0  0  0
   -7.5480   70.3360   64.5640 C   0  0  0  0  0  0  0  0  0  0  0  0
  7  8  1  0
 10 11  2  0
 10 12  1  0
 11 13  1  0
 12 14  2  0
  1 17  2  0
  7 17  1  0
 16 17  1  0
  2 18  1  0
  3 18  2  0
  8 19  1  0
  9 19  2  0
 13 20  2  0
 14 20  1  0
 16 20  1  0
  4 21  1  0
 15 21  1  0
  5 22  2  0
 19 22  1  0
 21 22  1  0
  6 23  1  0
  9 23  1  0
 15 23  1  0
 18 23  1  0
M  END
$$$$
