
     RDKit          3D

 42 46  0  0  0  0  0  0  0  0999 V2000
    5.5088    0.9598   -2.6727 C   0  0  0  0  0  0  0  0  0  0  0  0
    4.7325   -2.3349    1.7507 C   0  0  0  0  0  0  0  0  0  0  0  0
    0.8168   -3.4383   -0.1104 C   0  0  0  0  0  0  0  0  0  0  0  0
    4.9985   -2.4812    0.3872 C   0  0  0  0  0  0  0  0  0  0  0  0
    3.9576   -1.2661    2.2032 C   0  0  0  0  0  0  0  0  0  0  0  0
   -0.2575   -2.5511   -0.0612 C   0  0  0  0  0  0  0  0  0  0  0  0
   -5.7434   -1.0466    0.3280 C   0  0  0  0  0  0  0  0  0  0  0  0
   -5.0578    0.1194    0.7119 C   0  0  0  0  0  0  0  0  0  0  0  0
   -1.8106    3.2795   -0.5939 C   0  0  0  0  0  0  0  0  0  0  0  0
    1.5283   -3.7163    1.0573 C   0  0  0  0  0  0  0  0  0  0  0  0
   -1.7498    3.7860   -1.8926 C   0  0  0  0  0  0  0  0  0  0  0  0
   -4.2217    3.2919   -0.7397 C   0  0  0  0  0  0  0  0  0  0  0  0
   -3.6799   -2.3469    0.4770 C   0  0  0  0  0  0  0  0  0  0  0  0
    3.7052   -0.4872   -0.0762 C   0  0  0  0  0  0  0  0  0  0  0  0
   -3.1385    2.4466    1.3827 C   0  0  0  0  0  0  0  0  0  0  0  0
   -3.0566    3.0309   -0.0040 C   0  0  0  0  0  0  0  0  0  0  0  0
   -5.0583   -2.2753    0.2110 C   0  0  0  0  0  0  0  0  0  0  0  0
    4.4970   -1.5547   -0.5398 C   0  0  0  0  0  0  0  0  0  0  0  0
    3.4401   -0.3376    1.2906 C   0  0  0  0  0  0  0  0  0  0  0  0
   -0.6078   -1.9361    1.1484 C   0  0  0  0  0  0  0  0  0  0  0  0
   -3.0249   -1.1737    0.8513 C   0  0  0  0  0  0  0  0  0  0  0  0
   -3.6860    0.0243    0.9722 C   0  0  0  0  0  0  0  0  0  0  0  0
   -4.1215    3.7941   -2.0425 C   0  0  0  0  0  0  0  0  0  0  0  0
   -1.7026   -0.9449    1.1629 C   0  0  0  0  0  0  0  0  0  0  0  0
   -1.6129    0.4177    1.4600 C   0  0  0  0  0  0  0  0  0  0  0  0
    0.1300   -2.2537    2.3099 C   0  0  0  0  0  0  0  0  0  0  0  0
   -0.3569    1.1110    1.8110 C   0  0  0  0  0  0  0  0  0  0  0  0
   -5.9318   -3.7207   -0.2601 Cl  0  0  0  0  0  0  0  0  0  0  0  0
   -5.2001    4.0290   -2.7211 N   0  0  0  0  0  0  0  0  0  0  0  0
   -2.8921    4.0308   -2.5885 N   0  0  0  0  0  0  0  0  0  0  0  0
    1.1700   -3.1278    2.2278 N   0  0  0  0  0  0  0  0  0  0  0  0
    4.7868   -1.7342   -1.9374 N   0  0  0  0  0  0  0  0  0  0  0  0
    0.8495    0.7904    1.1132 N   0  0  0  0  0  0  0  0  0  0  0  0
   -2.8357    1.0097    1.3460 N   0  0  0  0  0  0  0  0  0  0  0  0
   -0.1864   -1.7097    3.5545 O   0  0  0  0  0  0  0  0  0  0  0  0
   -0.3411    1.9592    2.7416 O   0  0  0  0  0  0  0  0  0  0  0  0
    3.1399   -0.1647   -3.3078 O   0  0  0  0  0  0  0  0  0  0  0  0
    5.1364   -1.0029   -4.4414 O   0  0  0  0  0  0  0  0  0  0  0  0
    3.0075    2.3001    1.4120 O   0  0  0  0  0  0  0  0  0  0  0  0
    2.2901    0.9527    3.3289 O   0  0  0  0  0  0  0  0  0  0  0  0
    4.5947   -0.4960   -3.1354 S   0  0  0  0  0  6  0  0  0  0  0  0
    2.4123    0.9862    1.8314 S   0  0  0  0  0  6  0  0  0  0  0  0
  1 41  1  0
  2  4  2  0
  2  5  1  0
  3  6  2  0
  3 10  1  0
  4 18  1  0
  5 19  2  0
  6 20  1  0
  7  8  2  0
  7 17  1  0
  8 22  1  0
  9 11  2  0
  9 16  1  0
 10 31  2  0
 11 30  1  0
 12 16  2  0
 12 23  1  0
 13 17  2  0
 13 21  1  0
 14 18  2  0
 14 19  1  0
 15 16  1  0
 15 34  1  0
 17 28  1  0
 18 32  1  0
 19 42  1  0
 20 24  1  0
 20 26  2  0
 21 22  2  0
 21 24  1  0
 22 34  1  0
 23 29  2  3
 23 30  1  0
 24 25  2  0
 25 27  1  0
 25 34  1  0
 26 31  1  0
 26 35  1  0
 27 33  1  0
 27 36  2  0
 32 41  1  0
 33 42  1  0
 37 41  2  0
 38 41  2  0
 39 42  2  0
 40 42  2  0
M  END
$$$$
