
     RDKit          3D

 36 38  0  0  0  0  0  0  0  0999 V2000
    9.4717    2.0928    3.5683 C   0  0  0  0  0  0  0  0  0  0  0  0
   -3.3998    1.4341    0.3147 C   0  0  0  0  0  0  0  0  0  0  0  0
   -4.6569   -0.3585    1.3505 C   0  0  0  0  0  0  0  0  0  0  0  0
    5.6292   -0.8175   -0.1195 C   0  0  0  0  0  0  0  0  0  0  0  0
   -2.4193    0.5191   -0.0774 C   0  0  0  0  0  0  0  0  0  0  0  0
   -3.6757   -1.2735    0.9559 C   0  0  0  0  0  0  0  0  0  0  0  0
    6.8250   -0.8215    0.6194 C   0  0  0  0  0  0  0  0  0  0  0  0
    1.9988   -0.0825   -2.6659 C   0  0  0  0  0  0  0  0  0  0  0  0
    1.2456   -1.3245   -2.1873 C   0  0  0  0  0  0  0  0  0  0  0  0
   -0.3945   -3.7709   -0.7685 C   0  0  0  0  0  0  0  0  0  0  0  0
   -1.5888   -3.1375   -0.0518 C   0  0  0  0  0  0  0  0  0  0  0  0
   -5.5906    1.9911    1.4370 C   0  0  0  0  0  0  0  0  0  0  0  0
    5.1294    1.4455    0.6484 C   0  0  0  0  0  0  0  0  0  0  0  0
    8.3325    1.6480    2.7166 C   0  0  0  0  0  0  0  0  0  0  0  0
   -4.5217    1.0031    1.0391 C   0  0  0  0  0  0  0  0  0  0  0  0
    4.7921    0.3267   -0.1347 C   0  0  0  0  0  0  0  0  0  0  0  0
   -2.5498   -0.8395    0.2334 C   0  0  0  0  0  0  0  0  0  0  0  0
   -6.5990    2.2278    0.2934 C   0  0  0  0  0  0  0  0  0  0  0  0
    7.1602    0.3133    1.3590 C   0  0  0  0  0  0  0  0  0  0  0  0
    6.3192    1.4150    1.3713 C   0  0  0  0  0  0  0  0  0  0  0  0
    3.3831   -0.0475   -2.0960 C   0  0  0  0  0  0  0  0  0  0  0  0
   -7.5068    3.3853    0.6075 C   0  0  0  0  0  0  0  0  0  0  0  0
   -7.4239    0.9959    0.0219 C   0  0  0  0  0  0  0  0  0  0  0  0
   -0.8222   -2.4433   -2.9201 C   0  0  0  0  0  0  0  0  0  0  0  0
   -0.0336   -1.4074   -2.8847 N   0  0  0  0  0  0  0  0  0  0  0  0
   -0.5204   -3.6660   -2.2266 N   0  0  0  0  0  0  0  0  0  0  0  0
    8.2885    0.4384    2.1033 N   0  0  0  0  0  0  0  0  0  0  0  0
    3.5553    0.3355   -0.8620 N   0  0  0  0  0  0  0  0  0  0  0  0
    4.4522   -0.4107   -2.9216 O   0  0  0  0  0  0  0  0  0  0  0  0
   -8.1211    3.4396    1.7083 O   0  0  0  0  0  0  0  0  0  0  0  0
   -7.6886    4.3942   -0.3339 O   0  0  0  0  0  0  0  0  0  0  0  0
   -7.3102    0.3882   -1.0768 O   0  0  0  0  0  0  0  0  0  0  0  0
   -8.2955    0.5065    0.9899 O   0  0  0  0  0  0  0  0  0  0  0  0
   -1.9809   -2.3848   -3.6886 O   0  0  0  0  0  0  0  0  0  0  0  0
   -1.5481   -1.7200   -0.1999 O   0  0  0  0  0  0  0  0  0  0  0  0
    6.9863    2.6084    2.3468 S   0  0  0  0  0  0  0  0  0  0  0  0
  1 14  1  0
  2  5  2  0
  2 15  1  0
  3  6  1  0
  3 15  2  0
  4  7  2  0
  4 16  1  0
  5 17  1  0
  6 17  2  0
  7 19  1  0
  8  9  1  0
  8 21  1  0
  9 25  1  0
 10 11  1  0
 10 26  1  0
 11 35  1  0
 12 15  1  0
 12 18  1  0
 13 16  2  0
 13 20  1  0
 14 27  2  0
 14 36  1  0
 16 28  1  0
 17 35  1  0
 18 22  1  0
 18 23  1  0
 19 20  2  0
 19 27  1  0
 20 36  1  0
 21 28  2  3
 21 29  1  0
 22 30  2  0
 22 31  1  0
 23 32  2  0
 23 33  1  0
 24 25  2  3
 24 26  1  0
 24 34  1  0
M  END
$$$$
