
     RDKit          3D

 25 27  0  0  0  0  0  0  0  0999 V2000
    6.0993    1.4004   -0.8006 C   0  0  0  0  0  0  0  0  0  0  0  0
    5.3498    1.5201    0.3723 C   0  0  0  0  0  0  0  0  0  0  0  0
    5.5295    0.8240   -1.9393 C   0  0  0  0  0  0  0  0  0  0  0  0
    4.0323    1.0552    0.4111 C   0  0  0  0  0  0  0  0  0  0  0  0
   -3.4838    1.3610    0.3086 C   0  0  0  0  0  0  0  0  0  0  0  0
   -4.9489   -0.3171   -0.6417 C   0  0  0  0  0  0  0  0  0  0  0  0
   -2.5717    0.3629    0.6633 C   0  0  0  0  0  0  0  0  0  0  0  0
   -4.0356   -1.3139   -0.2860 C   0  0  0  0  0  0  0  0  0  0  0  0
    1.5434   -2.5352    1.8097 C   0  0  0  0  0  0  0  0  0  0  0  0
   -4.6806    1.0315   -0.3518 C   0  0  0  0  0  0  0  0  0  0  0  0
   -2.8322   -0.9821    0.3505 C   0  0  0  0  0  0  0  0  0  0  0  0
    4.2099    0.3566   -1.9067 C   0  0  0  0  0  0  0  0  0  0  0  0
    2.2445   -1.6355    1.0099 C   0  0  0  0  0  0  0  0  0  0  0  0
    3.4633    0.4445   -0.7195 C   0  0  0  0  0  0  0  0  0  0  0  0
    1.5207   -0.8373    0.0955 C   0  0  0  0  0  0  0  0  0  0  0  0
   -5.6491    2.0842   -0.7300 C   0  0  0  0  0  0  0  0  0  0  0  0
   -0.4989   -1.8662    0.8270 C   0  0  0  0  0  0  0  0  0  0  0  0
    3.5136   -0.3527   -3.3565 Cl  0  0  0  0  0  0  0  0  0  0  0  0
    3.5985   -1.6202    1.0869 F   0  0  0  0  0  0  0  0  0  0  0  0
    0.1960   -2.6349    1.7038 N   0  0  0  0  0  0  0  0  0  0  0  0
   -1.9221   -2.0277    0.7308 N   0  0  0  0  0  0  0  0  0  0  0  0
    2.0909    0.0249   -0.7037 N   0  0  0  0  0  0  0  0  0  0  0  0
    0.1687   -0.9982    0.0121 N   0  0  0  0  0  0  0  0  0  0  0  0
   -6.8338    1.7473   -1.3799 O   0  0  0  0  0  0  0  0  0  0  0  0
   -5.4114    3.2946   -0.4685 O   0  0  0  0  0  0  0  0  0  0  0  0
  1  2  2  0
  1  3  1  0
  2  4  1  0
  3 12  2  0
  4 14  2  0
  5  7  2  0
  5 10  1  0
  6  8  1  0
  6 10  2  0
  7 11  1  0
  8 11  2  0
  9 13  2  0
  9 20  1  0
 10 16  1  0
 11 21  1  0
 12 14  1  0
 12 18  1  0
 13 15  1  0
 13 19  1  0
 14 22  1  0
 15 22  2  3
 15 23  1  0
 16 24  1  0
 16 25  2  0
 17 20  2  0
 17 21  1  0
 17 23  1  0
M  END
$$$$
