
     RDKit          3D

 10 11  0  0  0  0  0  0  0  0999 V2000
   -1.7919   -1.3482   -0.0270 C   0  0  0  0  0  0  0  0  0  0  0  0
   -2.2846   -0.1329    0.5043 C   0  0  0  0  0  0  0  0  0  0  0  0
   -0.4382   -1.4719   -0.3945 C   0  0  0  0  0  0  0  0  0  0  0  0
   -1.4292    0.9730    0.6742 C   0  0  0  0  0  0  0  0  0  0  0  0
    0.3804   -0.3584   -0.2132 C   0  0  0  0  0  0  0  0  0  0  0  0
   -0.0958    0.8204    0.3016 C   0  0  0  0  0  0  0  0  0  0  0  0
    1.7179   -0.1132   -0.4516 C   0  0  0  0  0  0  0  0  0  0  0  0
    2.5849   -0.9408   -0.9412 N   0  0  0  0  0  0  0  0  0  0  0  0
    0.8977    1.7268    0.3706 N   0  0  0  0  0  0  0  0  0  0  0  0
    2.0052    1.1561   -0.0896 N   0  0  0  0  0  0  0  0  0  0  0  0
  1  2  2  0
  1  3  1  0
  2  4  1  0
  3  5  2  0
  4  6  2  0
  5  6  1  0
  5  7  1  0
  6  9  1  0
  7  8  2  3
  7 10  1  0
  9 10  1  0
M  END
$$$$
