
     RDKit          3D

 32 35  0  0  0  0  0  0  0  0999 V2000
   -1.2156   -2.5633   -0.4705 C   0  0  0  0  0  0  0  0  0  0  0  0
   -5.9819   -1.2493    3.2921 C   0  0  0  0  0  0  0  0  0  0  0  0
   -4.6502   -2.2430    1.4251 C   0  0  0  0  0  0  0  0  0  0  0  0
   -6.3584   -0.4304    0.9546 C   0  0  0  0  0  0  0  0  0  0  0  0
   -2.5359   -1.4024   -2.3252 C   0  0  0  0  0  0  0  0  0  0  0  0
    3.7830    2.2585    0.4894 C   0  0  0  0  0  0  0  0  0  0  0  0
   -2.8790    0.0922   -2.3624 C   0  0  0  0  0  0  0  0  0  0  0  0
    4.6280    2.9624    1.3669 C   0  0  0  0  0  0  0  0  0  0  0  0
    5.4669    0.4931    0.2296 C   0  0  0  0  0  0  0  0  0  0  0  0
    1.8933    0.2589   -0.7491 C   0  0  0  0  0  0  0  0  0  0  0  0
   -1.0363    0.6475   -0.7131 C   0  0  0  0  0  0  0  0  0  0  0  0
   -1.1318   -1.6981   -1.7342 C   0  0  1  0  0  0  0  0  0  0  0  0
    4.1872    1.0174   -0.0812 C   0  0  0  0  0  0  0  0  0  0  0  0
   -2.5454    0.7789   -1.0343 C   0  0  2  0  0  0  0  0  0  0  0  0
    5.8720    2.4064    1.6461 C   0  0  0  0  0  0  0  0  0  0  0  0
    3.2748    0.2740   -0.9908 C   0  0  0  0  0  0  0  0  0  0  0  0
    6.2793    1.2188    1.0971 C   0  0  0  0  0  0  0  0  0  0  0  0
    1.0506   -0.4391   -1.6260 C   0  0  0  0  0  0  0  0  0  0  0  0
    6.9375    2.8089    2.4271 C   0  0  0  0  0  0  0  0  0  0  0  0
    2.9429   -1.0993   -2.8981 C   0  0  0  0  0  0  0  0  0  0  0  0
   -3.5008    0.7059    1.2431 C   0  0  0  0  0  0  0  0  0  0  0  0
   -5.2987   -0.9457    1.9485 C   0  0  0  0  0  0  0  0  0  0  0  0
    7.0158    3.8844    3.1435 N   0  0  0  0  0  0  0  0  0  0  0  0
    3.4331   -1.7483   -3.9052 N   0  0  0  0  0  0  0  0  0  0  0  0
   -3.3728    0.2188    0.0398 N   0  0  0  0  0  0  0  0  0  0  0  0
    3.7693   -0.4047   -2.0671 N   0  0  0  0  0  0  0  0  0  0  0  0
    1.6031   -1.1077   -2.6734 N   0  0  0  0  0  0  0  0  0  0  0  0
    7.5229    0.9183    1.5217 N   0  0  0  0  0  0  0  0  0  0  0  0
    7.9235    1.8904    2.3343 N   0  0  0  0  0  0  0  0  0  0  0  0
   -0.3825   -0.4613   -1.4346 N   0  0  0  0  0  0  0  0  0  0  0  0
   -2.8356    1.8698    1.6384 O   0  0  0  0  0  0  0  0  0  0  0  0
   -4.3096    0.0674    2.1949 O   0  0  0  0  0  0  0  0  0  0  0  0
 12  1  1  1
  2 22  1  0
  3 22  1  0
  4 22  1  0
  5  7  1  0
  5 12  1  0
  6  8  2  0
  6 13  1  0
 14  7  1  6
  8 15  1  0
  9 13  2  0
  9 17  1  0
 10 16  2  0
 10 18  1  0
 11 14  1  0
 11 30  1  0
 12 30  1  0
 13 16  1  0
 14 25  1  0
 15 17  2  0
 15 19  1  0
 16 26  1  0
 17 28  1  0
 18 27  2  0
 18 30  1  0
 19 23  2  3
 19 29  1  0
 20 24  2  3
 20 26  1  0
 20 27  1  0
 21 25  2  3
 21 31  1  0
 21 32  1  0
 22 32  1  0
 28 29  1  0
M  END
$$$$
