3O88_BSH_A_1_AA
     RDKit          3D

 25 26  0  0  0  0  0  0  0  0999 V2000
   20.9500   10.9280   14.7930 O   0  0  0  0  0  0  0  0  0  0  0  0
   26.9750    5.4300   13.3830 O   0  0  0  0  0  0  0  0  0  0  0  0
   25.0350    3.7250   13.6890 O   0  0  0  0  0  0  0  0  0  0  0  0
   20.9500   10.5160   12.5980 O   0  0  0  0  0  0  0  0  0  0  0  0
   25.3710    4.8280   17.3760 O   0  0  0  0  0  0  0  0  0  0  0  0
   27.1040    6.5560   18.1360 O   0  0  0  0  0  0  0  0  0  0  0  0
   20.2720    5.5490   11.6010 C   0  0  0  0  0  0  0  0  0  0  0  0
   20.7990    6.3820   12.5840 C   0  0  0  0  0  0  0  0  0  0  0  0
   21.1510    4.8690   10.7590 C   0  0  0  0  0  0  0  0  0  0  0  0
   25.0250    9.7000   12.6570 C   0  0  0  0  0  0  0  0  0  0  0  0
   22.1780    6.5290   12.7170 C   0  0  0  0  0  0  0  0  0  0  0  0
   22.5300    5.0280   10.8850 C   0  0  0  0  0  0  0  0  0  0  0  0
   25.5520    9.0920   13.8050 C   0  0  0  0  0  0  0  0  0  0  0  0
   23.7070   10.1430   12.6730 C   0  0  0  0  0  0  0  0  0  0  0  0
   23.4660    9.3650   14.9530 C   0  0  0  0  0  0  0  0  0  0  0  0
   25.4340    8.2140   16.1280 C   0  0  0  0  0  0  0  0  0  0  0  0
   24.5310    6.0380   12.0350 C   0  0  0  0  0  0  0  0  0  0  0  0
   25.0220    6.0370   15.0310 N   0  0  0  0  0  0  0  0  0  0  0  0
   21.4980   10.5040   13.7270 C   0  0  0  0  0  0  0  0  0  0  0  0
   23.0680    5.8550   11.8650 C   0  0  0  0  0  0  0  0  0  0  0  0
   24.7990    8.9200   14.9650 C   0  0  0  0  0  0  0  0  0  0  0  0
   22.9240    9.9760   13.8140 C   0  0  0  0  0  0  0  0  0  0  0  0
   25.9790    6.8080   15.7950 C   0  0  0  0  0  0  0  0  0  0  0  0
   25.2680    5.4010   13.5770 S   0  0  0  0  0  0  0  0  0  0  0  0
   26.4160    5.8540   16.9830 B   0  0  0  0  0  0  0  0  0  0  0  0
  7  8  2  0
  7  9  1  0
  8 11  1  0
  9 12  2  0
 10 13  2  0
 10 14  1  0
  1 19  1  0
  4 19  2  0
 11 20  2  0
 12 20  1  0
 17 20  1  0
 13 21  1  0
 15 21  2  0
 16 21  1  0
 14 22  2  0
 15 22  1  0
 19 22  1  0
 16 23  1  0
 18 23  1  0
  2 24  2  0
  3 24  2  0
 17 24  1  0
 18 24  1  0
  5 25  1  0
  6 25  1  0
 23 25  1  0
M  END
$$$$
