
     RDKit          3D

 18 18  0  0  0  0  0  0  0  0999 V2000
    3.2294   -1.5833   -1.1959 C   0  0  0  0  0  0  0  0  0  0  0  0
    1.9232   -1.7037   -0.7182 C   0  0  0  0  0  0  0  0  0  0  0  0
    3.9242   -0.3803   -1.0481 C   0  0  0  0  0  0  0  0  0  0  0  0
    1.9987    0.5919    0.0584 C   0  0  0  0  0  0  0  0  0  0  0  0
   -0.1159   -0.7380    0.4054 C   0  0  0  0  0  0  0  0  0  0  0  0
   -3.2088    0.1982    0.8486 C   0  0  0  0  0  0  0  0  0  0  0  0
    1.3026   -0.6204   -0.0788 C   0  0  0  0  0  0  0  0  0  0  0  0
    3.3155    0.7206   -0.4213 C   0  0  0  0  0  0  0  0  0  0  0  0
    4.0514    1.9959   -0.2738 C   0  0  0  0  0  0  0  0  0  0  0  0
   -4.7710    0.1053    1.1444 B   0  0  0  0  0  0  0  0  0  0  0  0
   -2.8960   -0.5181   -0.3891 N   0  0  0  0  0  0  0  0  0  0  0  0
    3.5079    2.9861    0.2864 O   0  0  0  0  0  0  0  0  0  0  0  0
    5.3535    2.1144   -0.7532 O   0  0  0  0  0  0  0  0  0  0  0  0
   -5.5768    1.3218    1.2140 O   0  0  0  0  0  0  0  0  0  0  0  0
   -5.3958   -1.1946    1.3776 O   0  0  0  0  0  0  0  0  0  0  0  0
   -1.0743    1.2718   -1.1125 O   0  0  0  0  0  0  0  0  0  0  0  0
   -0.9669   -0.9482   -2.1352 O   0  0  0  0  0  0  0  0  0  0  0  0
   -1.2543   -0.2000   -0.8637 S   0  0  0  0  0  6  0  0  0  0  0  0
  1  2  2  0
  1  3  1  0
  2  7  1  0
  3  8  2  0
  4  7  2  0
  4  8  1  0
  5  7  1  0
  5 18  1  0
  6 10  1  0
  6 11  1  0
  8  9  1  0
  9 12  2  0
  9 13  1  0
 10 14  1  0
 10 15  1  0
 11 18  1  0
 16 18  2  0
 17 18  2  0
M  END
$$$$
