4E3I_0N3_A_401_
     RDKit          3D

 18 18  0  0  0  0  0  0  0  0999 V2000
   26.6782    5.5864   16.3683 B   0  0  0  0  0  0  0  0  0  0  0  0
   25.7160    4.6929   17.0122 O   0  0  0  0  0  0  0  0  0  0  0  0
   26.8715    6.7164   17.2895 O   0  0  0  0  0  0  0  0  0  0  0  0
   26.0776    6.0462   14.9901 C   0  0  0  0  0  0  0  0  0  0  0  0
   24.6150    6.1650   14.9605 N   0  0  0  0  0  0  0  0  0  0  0  0
   23.8187    6.6074   13.6307 S   0  0  0  0  0  0  0  0  0  0  0  0
   24.4347    7.7945   13.0778 O   0  0  0  0  0  0  0  0  0  0  0  0
   22.4762    6.9044   13.9694 O   0  0  0  0  0  0  0  0  0  0  0  0
   23.8701    5.3539   12.4624 C   0  0  0  0  0  0  0  0  0  0  0  0
   23.0709    5.5776   11.2057 C   0  0  0  0  0  0  0  0  0  0  0  0
   23.5299    6.4833   10.2462 C   0  0  0  0  0  0  0  0  0  0  0  0
   22.7685    6.6586    9.0845 C   0  0  0  0  0  0  0  0  0  0  0  0
   21.5828    5.9643    8.8599 C   0  0  0  0  0  0  0  0  0  0  0  0
   21.1638    5.0788    9.8361 C   0  0  0  0  0  0  0  0  0  0  0  0
   19.8816    4.2743    9.6367 C   0  0  0  0  0  0  0  0  0  0  0  0
   19.4329    3.6047   10.5901 O   0  0  0  0  0  0  0  0  0  0  0  0
   19.3119    4.2683    8.5126 O   0  0  0  0  0  0  0  0  0  0  0  0
   21.9053    4.8844   10.9890 C   0  0  0  0  0  0  0  0  0  0  0  0
  1  2  1  0
  1  3  1  0
  1  4  1  0
  4  5  1  0
  5  6  1  0
  6  7  2  0
  6  8  2  0
  6  9  1  0
  9 10  1  0
 10 11  2  0
 11 12  1  0
 12 13  2  0
 13 14  1  0
 14 15  1  0
 15 16  1  0
 15 17  2  0
 14 18  2  0
 10 18  1  0
M  END
$$$$
