
     RDKit          3D

 23 27  0  0  0  0  0  0  0  0999 V2000
   -1.8750    2.8762   -0.4623 C   0  0  0  0  0  0  0  0  0  0  0  0
   -3.2612    2.8909   -0.2131 C   0  0  0  0  0  0  0  0  0  0  0  0
   -1.1126   -3.6596    0.3127 C   0  0  0  0  0  0  0  0  0  0  0  0
   -1.1438    1.6802   -0.3624 C   0  0  0  0  0  0  0  0  0  0  0  0
   -3.9344    1.7056    0.1196 C   0  0  0  0  0  0  0  0  0  0  0  0
   -2.3750   -3.0668    0.4479 C   0  0  0  0  0  0  0  0  0  0  0  0
    0.0338   -2.8638    0.1291 C   0  0  0  0  0  0  0  0  0  0  0  0
    4.4037    0.1579   -1.0093 C   0  0  0  0  0  0  0  0  0  0  0  0
    5.1812    1.1934   -0.4568 C   0  0  0  0  0  0  0  0  0  0  0  0
    3.4352    1.7676    1.0797 C   0  0  0  0  0  0  0  0  0  0  0  0
   -1.8155    0.5151    0.0266 C   0  0  0  0  0  0  0  0  0  0  0  0
   -3.1890    0.5326    0.2270 C   0  0  0  0  0  0  0  0  0  0  0  0
   -2.4638   -1.6796    0.3680 C   0  0  0  0  0  0  0  0  0  0  0  0
   -0.0626   -1.4570    0.0713 C   0  0  0  0  0  0  0  0  0  0  0  0
    3.1339   -0.0262   -0.4722 C   0  0  0  0  0  0  0  0  0  0  0  0
    2.6605    0.7487    0.5380 C   0  0  0  0  0  0  0  0  0  0  0  0
   -1.3460   -0.8815    0.1533 C   0  0  0  0  0  0  0  0  0  0  0  0
   -3.6447   -0.8312    0.4461 C   0  0  0  0  0  0  0  0  0  0  0  0
    1.1706   -0.6550    0.0257 C   0  0  0  0  0  0  0  0  0  0  0  0
    4.6854    1.9656    0.5632 N   0  0  0  0  0  0  0  0  0  0  0  0
    2.2070   -0.9313   -0.8063 N   0  0  0  0  0  0  0  0  0  0  0  0
    1.4191    0.3688    0.8873 N   0  0  0  0  0  0  0  0  0  0  0  0
   -4.8311   -1.2073    0.6378 O   0  0  0  0  0  0  0  0  0  0  0  0
  1  2  2  0
  1  4  1  0
  2  5  1  0
  3  6  2  0
  3  7  1  0
  4 11  2  0
  5 12  2  0
  6 13  1  0
  7 14  2  0
  8  9  2  0
  8 15  1  0
  9 20  1  0
 10 16  1  0
 10 20  2  0
 11 12  1  0
 11 17  1  0
 12 18  1  0
 13 17  2  0
 13 18  1  0
 14 17  1  0
 14 19  1  0
 15 16  2  0
 15 21  1  0
 16 22  1  0
 18 23  2  0
 19 21  1  0
 19 22  2  0
M  END
$$$$
