2VRJ_NCW_A_1446_AB
     RDKit          3D

 22 23  0  0  0  0  0  0  0  0999 V2000
    0.2420    7.8640   11.4280 S   0  0  0  0  0  0  0  0  0  0  0  0
   -0.6110    7.9650   10.0870 C   0  0  0  0  0  0  0  0  0  0  0  0
   -1.2620    9.0930    9.7300 N   0  0  0  0  0  0  0  0  0  0  0  0
   -2.0640    9.2390    8.5310 C   0  0  0  0  0  0  0  0  0  0  0  0
   -1.1450   10.0620    7.6440 C   0  0  0  0  0  0  0  0  0  0  0  0
   -1.9100   10.3860    6.4730 O   0  0  0  0  0  0  0  0  0  0  0  0
   -0.5970   11.3480    8.3160 C   0  0  0  0  0  0  0  0  0  0  0  0
    0.5910   11.8390    7.6950 O   0  0  0  0  0  0  0  0  0  0  0  0
   -0.2190   11.1670    9.7920 C   0  0  0  0  0  0  0  0  0  0  0  0
    0.0160   12.4530   10.4040 O   0  0  0  0  0  0  0  0  0  0  0  0
   -3.1740   10.1240    9.0590 C   0  0  0  0  0  0  0  0  0  0  0  0
   -2.6060   10.8130   10.1920 O   0  0  0  0  0  0  0  0  0  0  0  0
   -1.2890   10.3230   10.4910 C   0  0  0  0  0  0  0  0  0  0  0  0
   -0.6770    6.8830    9.3030 N   0  0  0  0  0  0  0  0  0  0  0  0
    0.3010    5.8010    9.3510 C   0  0  0  0  0  0  0  0  0  0  0  0
   -0.2490    4.5530    8.6730 C   0  0  0  0  0  0  0  0  0  0  0  0
   -0.8990    4.8970    7.3310 C   0  0  0  0  0  0  0  0  0  0  0  0
   -0.3780    4.0570    6.1870 C   0  0  0  0  0  0  0  0  0  0  0  0
    1.1570    4.2110    6.1560 C   0  0  0  0  0  0  0  0  0  0  0  0
    1.7700    2.9700    6.5910 C   0  0  0  0  0  0  0  0  0  0  0  0
    0.6890    1.8730    6.4360 C   0  0  0  0  0  0  0  0  0  0  0  0
    1.0310    0.7550    7.3610 C   0  0  0  0  0  0  0  0  0  0  0  0
  1  2  2  0
  2  3  1  0
  3  4  1  0
  4  5  1  0
  5  6  1  0
  5  7  1  0
  7  8  1  0
  7  9  1  0
  9 10  1  0
  4 11  1  0
 11 12  1  0
  3 13  1  0
  9 13  1  0
 12 13  1  0
  2 14  1  0
 14 15  1  0
 15 16  1  0
 16 17  1  0
 17 18  1  0
 18 19  1  0
 19 20  1  0
 20 21  1  0
 21 22  1  0
M  END
$$$$
