2Y54_V63_B_301_
     RDKit          3D

 17 19  0  0  0  0  0  0  0  0999 V2000
  -54.2141  -33.6451  -33.7132 C   0  0  0  0  0  0  0  0  0  0  0  0
  -51.9736  -32.7239  -32.3160 C   0  0  0  0  0  0  0  0  0  0  0  0
  -53.2519  -32.5224  -31.7925 C   0  0  0  0  0  0  0  0  0  0  0  0
  -58.4056  -35.6763  -33.2900 C   0  0  0  0  0  0  0  0  0  0  0  0
  -55.7591  -32.7710  -31.9383 C   0  0  0  0  0  0  0  0  0  0  0  0
  -59.2328  -32.6301  -33.1580 C   0  0  0  0  0  0  0  0  0  0  0  0
  -51.8212  -33.3884  -33.5346 C   0  0  0  0  0  0  0  0  0  0  0  0
  -58.4522  -34.2140  -31.2877 C   0  0  0  0  0  0  0  0  0  0  0  0
  -59.2130  -35.2854  -32.0619 C   0  0  0  0  0  0  0  0  0  0  0  0
  -52.9379  -33.8506  -34.2337 C   0  0  0  0  0  0  0  0  0  0  0  0
  -58.9094  -34.7500  -34.3894 C   0  0  0  0  0  0  0  0  0  0  0  0
  -59.9467  -33.8554  -33.7287 C   0  0  0  0  0  0  0  0  0  0  0  0
  -54.3756  -32.9825  -32.4916 C   0  0  0  0  0  0  0  0  0  0  0  0
  -58.1566  -32.9617  -32.1188 C   0  0  0  0  0  0  0  0  0  0  0  0
  -55.9200  -32.3215  -30.8092 O   0  0  0  0  0  0  0  0  0  0  0  0
  -60.4365  -34.6458  -32.5902 N   0  0  0  0  0  0  0  0  0  0  0  0
  -56.9026  -33.0996  -32.7753 O   0  0  0  0  0  0  0  0  0  0  0  0
  2  3  1  0
  2  7  2  0
  8  9  1  0
  4  9  1  0
  1 10  2  0
  7 10  1  0
  4 11  1  0
  6 12  1  0
 11 12  1  0
  3 13  2  0
  1 13  1  0
  5 13  1  0
  8 14  1  0
  6 14  1  0
  5 15  2  0
 12 16  1  0
  9 16  1  0
  5 17  1  0
 14 17  1  0
M  END
$$$$
