2Y58_V38_B_301_
     RDKit          3D

 27 30  0  0  0  0  0  0  0  0999 V2000
  -55.3900  -33.8470  -33.0550 O   0  0  0  0  0  0  0  0  0  0  0  0
  -56.2140  -33.3760  -32.2650 C   0  0  0  0  0  0  0  0  0  0  0  0
  -55.8160  -32.8700  -30.9110 C   0  0  0  0  0  0  0  0  0  0  0  0
  -56.8460  -32.4960  -30.0190 C   0  0  0  0  0  0  0  0  0  0  0  0
  -56.5460  -31.9410  -28.7710 C   0  0  0  0  0  0  0  0  0  0  0  0
  -55.2010  -31.7460  -28.4440 C   0  0  0  0  0  0  0  0  0  0  0  0
  -54.1810  -32.1070  -29.3420 C   0  0  0  0  0  0  0  0  0  0  0  0
  -54.4710  -32.6480  -30.5950 C   0  0  0  0  0  0  0  0  0  0  0  0
  -57.6220  -33.1390  -32.5750 O   0  0  0  0  0  0  0  0  0  0  0  0
  -58.1820  -33.5650  -33.8060 C   0  0  0  0  0  0  0  0  0  0  0  0
  -58.0990  -35.0830  -33.9720 C   0  0  0  0  0  0  0  0  0  0  0  0
  -59.1810  -35.8430  -33.2100 C   0  0  0  0  0  0  0  0  0  0  0  0
  -59.0210  -35.4400  -31.7570 C   0  0  0  0  0  0  0  0  0  0  0  0
  -59.9630  -34.2510  -31.5980 C   0  0  0  0  0  0  0  0  0  0  0  0
  -60.5770  -34.0360  -32.9820 C   0  0  0  0  0  0  0  0  0  0  0  0
  -59.6360  -33.0970  -33.7500 C   0  0  0  0  0  0  0  0  0  0  0  0
  -60.5200  -35.3570  -33.6130 N   0  0  0  0  0  0  0  0  0  0  0  0
  -61.5790  -36.2120  -33.0680 C   0  0  0  0  0  0  0  0  0  0  0  0
  -60.7260  -35.1970  -35.0590 C   0  0  0  0  0  0  0  0  0  0  0  0
  -60.8640  -36.5080  -35.8100 C   0  0  0  0  0  0  0  0  0  0  0  0
  -59.7910  -37.3740  -35.4480 O   0  0  0  0  0  0  0  0  0  0  0  0
  -60.6780  -36.2030  -37.2350 C   0  0  0  0  0  0  0  0  0  0  0  0
  -59.6620  -36.8350  -37.9480 C   0  0  0  0  0  0  0  0  0  0  0  0
  -59.4730  -36.5390  -39.2920 C   0  0  0  0  0  0  0  0  0  0  0  0
  -60.2760  -35.5850  -39.9090 C   0  0  0  0  0  0  0  0  0  0  0  0
  -61.2950  -34.9510  -39.2010 C   0  0  0  0  0  0  0  0  0  0  0  0
  -61.5000  -35.2720  -37.8580 C   0  0  0  0  0  0  0  0  0  0  0  0
  1  2  2  0
  2  3  1  0
  3  4  2  0
  4  5  1  0
  5  6  2  0
  6  7  1  0
  3  8  1  0
  7  8  2  0
  2  9  1  0
  9 10  1  0
 10 11  1  0
 11 12  1  0
 12 13  1  0
 13 14  1  0
 14 15  1  0
 10 16  1  0
 15 16  1  0
 15 17  1  0
 12 17  1  0
 17 18  1  0
 17 19  1  0
 19 20  1  0
 20 21  1  0
 20 22  1  0
 22 23  2  0
 23 24  1  0
 24 25  2  0
 25 26  1  0
 22 27  1  0
 26 27  2  0
M  CHG  1  17   1
M  END
$$$$
