3RXO_SW2_A_7_
     RDKit          3D

 13 14  0  0  0  0  0  0  0  0999 V2000
   19.8075    3.4608   24.8281 C   0  0  0  0  0  0  0  0  0  0  0  0
   19.1322    4.7400   24.7137 N   0  0  0  0  0  0  0  0  0  0  0  0
   19.7106    2.9057   26.2363 C   0  0  0  0  0  0  0  0  0  0  0  0
   20.0589    4.0182   29.7673 N   0  0  0  0  0  0  0  0  0  0  0  0
   19.3945    1.5694   26.4179 C   0  0  0  0  0  0  0  0  0  0  0  0
   19.3056    1.0580   27.6997 C   0  0  0  0  0  0  0  0  0  0  0  0
   19.5297    1.8800   28.7999 C   0  0  0  0  0  0  0  0  0  0  0  0
   19.8608    3.2360   28.6787 C   0  0  0  0  0  0  0  0  0  0  0  0
   20.4897    3.5622   30.9474 C   0  0  0  0  0  0  0  0  0  0  0  0
   20.5247    4.6699   31.7776 C   0  0  0  0  0  0  0  0  0  0  0  0
   20.0900    5.7615   31.0440 C   0  0  0  0  0  0  0  0  0  0  0  0
   19.7921    5.3259   29.7724 C   0  0  0  0  0  0  0  0  0  0  0  0
   19.9371    3.7128   27.3553 C   0  0  0  0  0  0  0  0  0  0  0  0
  1  2  1  0
  1  3  1  0
  3  5  2  0
  5  6  1  0
  6  7  2  0
  4  8  1  0
  7  8  1  0
  4  9  1  0
  9 10  2  0
 10 11  1  0
  4 12  1  0
 11 12  2  0
  3 13  1  0
  8 13  2  0
M  END
$$$$
