2IIV_565_A_9001_
     RDKit          3D

 24 25  0  0  0  0  0  0  0  0999 V2000
   35.2542   12.3785   27.6783 C   0  0  0  0  0  0  0  0  0  0  0  0
   36.6029   11.8323   27.5948 C   0  0  0  0  0  0  0  0  0  0  0  0
   37.7991   12.6634   27.8144 C   0  0  0  0  0  0  0  0  0  0  0  0
   37.6409   14.1065   28.1396 C   0  0  0  0  0  0  0  0  0  0  0  0
   36.3083   14.6493   28.2187 C   0  0  0  0  0  0  0  0  0  0  0  0
   35.1216   13.7911   28.0011 C   0  0  0  0  0  0  0  0  0  0  0  0
   36.1704   15.9169   28.5063 F   0  0  0  0  0  0  0  0  0  0  0  0
   36.7408   10.5596   27.3043 F   0  0  0  0  0  0  0  0  0  0  0  0
   39.1231   12.0075   27.7291 C   0  0  0  0  0  0  0  0  0  0  0  0
   39.6383   11.8299   29.2341 C   0  0  0  0  0  0  0  0  0  0  0  0
   40.8497   11.1893   29.0158 C   0  0  0  0  0  0  0  0  0  0  0  0
   42.0852   12.0558   28.4480 C   0  0  0  0  0  0  0  0  0  0  0  0
   43.3071   11.4528   28.2931 N   0  0  0  0  0  0  0  0  0  0  0  0
   38.6572   11.0310   30.0231 N   0  0  0  0  0  0  0  0  0  0  0  0
   41.8838   13.2271   28.1608 O   0  0  0  0  0  0  0  0  0  0  0  0
   43.6577    9.9795   28.6442 C   0  0  0  0  0  0  0  0  0  0  0  0
   43.9328   10.1227   30.0600 C   0  0  0  0  0  0  0  0  0  0  0  0
   45.1960   10.8642   30.4883 C   0  0  0  0  0  0  0  0  0  0  0  0
   46.0524   11.3241   29.2923 N   0  0  0  0  0  0  0  0  0  0  0  0
   45.7947   11.9889   28.0563 C   0  0  0  0  0  0  0  0  0  0  0  0
   44.2896   12.4519   27.6588 C   0  0  0  0  0  0  0  0  0  0  0  0
   44.4247   12.5159   26.1299 C   0  0  0  0  0  0  0  0  0  0  0  0
   46.7472   12.1488   27.3748 O   0  0  0  0  0  0  0  0  0  0  0  0
   33.9583   14.2962   28.0865 F   0  0  0  0  0  0  0  0  0  0  0  0
  1  2  2  0
  2  3  1  0
  3  4  2  0
  4  5  1  0
  1  6  1  0
  5  6  2  0
  5  7  1  0
  2  8  1  0
  3  9  1  0
  9 10  1  0
 10 11  1  0
 11 12  1  0
 12 13  1  0
 10 14  1  0
 12 15  2  0
 13 16  1  0
 16 17  1  0
 17 18  1  0
 18 19  1  0
 19 20  1  0
 13 21  1  0
 20 21  1  0
 21 22  1  0
 20 23  2  0
  6 24  1  0
M  END
$$$$
