
     RDKit          3D

 25 28  0  0  0  0  0  0  0  0999 V2000
   -6.5053    1.3495    1.4351 C   0  0  0  0  0  0  0  0  0  0  0  0
   -5.7245    2.2321    2.1865 C   0  0  0  0  0  0  0  0  0  0  0  0
   -5.9503    0.6858    0.3375 C   0  0  0  0  0  0  0  0  0  0  0  0
   -0.7143    3.6082   -0.3452 C   0  0  0  0  0  0  0  0  0  0  0  0
   -4.3863    2.4499    1.8441 C   0  0  0  0  0  0  0  0  0  0  0  0
   -4.6127    0.9008   -0.0086 C   0  0  0  0  0  0  0  0  0  0  0  0
   -2.0177    3.3366    0.0628 C   0  0  0  0  0  0  0  0  0  0  0  0
    0.2167    2.5767   -0.4524 C   0  0  0  0  0  0  0  0  0  0  0  0
    3.3412   -3.5116   -0.7253 C   0  0  0  0  0  0  0  0  0  0  0  0
    1.9962   -3.0974   -0.7002 C   0  0  0  0  0  0  0  0  0  0  0  0
    4.0837   -1.2037   -0.3720 C   0  0  0  0  0  0  0  0  0  0  0  0
   -3.8173    1.7767    0.7499 C   0  0  0  0  0  0  0  0  0  0  0  0
    4.3962   -2.5725   -0.5600 C   0  0  0  0  0  0  0  0  0  0  0  0
   -2.4086    2.0255    0.3722 C   0  0  0  0  0  0  0  0  0  0  0  0
   -0.1389    1.2541   -0.1353 C   0  0  0  0  0  0  0  0  0  0  0  0
    1.7387   -1.7439   -0.5121 C   0  0  0  0  0  0  0  0  0  0  0  0
    2.7404   -0.8380   -0.3565 C   0  0  0  0  0  0  0  0  0  0  0  0
   -1.4574    0.9780    0.2975 C   0  0  0  0  0  0  0  0  0  0  0  0
    5.8088   -3.0269   -0.5930 C   0  0  0  0  0  0  0  0  0  0  0  0
    0.8715    0.1721   -0.2576 C   0  0  0  0  0  0  0  0  0  0  0  0
    6.7025   -2.4823    0.1732 N   0  0  0  0  0  0  0  0  0  0  0  0
    6.2043   -4.0847   -1.4701 N   0  0  0  0  0  0  0  0  0  0  0  0
    0.5421   -1.1343   -0.4537 N   0  0  0  0  0  0  0  0  0  0  0  0
    2.2134    0.3817   -0.1964 N   0  0  0  0  0  0  0  0  0  0  0  0
   -1.7902   -0.3242    0.6845 O   0  0  0  0  0  0  0  0  0  0  0  0
  1  2  2  0
  1  3  1  0
  2  5  1  0
  3  6  2  0
  4  7  2  0
  4  8  1  0
  5 12  2  0
  6 12  1  0
  7 14  1  0
  8 15  2  0
  9 10  2  0
  9 13  1  0
 10 16  1  0
 11 13  2  0
 11 17  1  0
 12 14  1  0
 13 19  1  0
 14 18  2  0
 15 18  1  0
 15 20  1  0
 16 17  2  0
 16 23  1  0
 17 24  1  0
 18 25  1  0
 19 21  2  3
 19 22  1  0
 20 23  2  0
 20 24  1  0
M  END
$$$$
