1O39_780_A_246_
     RDKit          3D

 41 44  0  0  0  0  0  0  0  0999 V2000
   44.2063   -3.0806   25.9238 C   0  0  0  0  0  0  0  0  0  0  0  0
   44.6225   -1.7218   26.0177 C   0  0  0  0  0  0  0  0  0  0  0  0
   44.5574   -0.9753   27.2021 C   0  0  0  0  0  0  0  0  0  0  0  0
   44.0673   -1.6148   28.2978 C   0  0  0  0  0  0  0  0  0  0  0  0
   43.6587   -2.8842   28.2727 C   0  0  0  0  0  0  0  0  0  0  0  0
   43.7021   -3.6718   27.1172 C   0  0  0  0  0  0  0  0  0  0  0  0
   44.2963   -3.7900   24.6904 C   0  0  0  0  0  0  0  0  0  0  0  0
   43.9953   -5.0726   24.6119 N   0  0  0  0  0  0  0  0  0  0  0  0
   44.6861   -3.1345   23.6250 N   0  0  0  0  0  0  0  0  0  0  0  0
   43.8853   -1.1795   29.5009 N   0  0  0  0  0  0  0  0  0  0  0  0
   43.2077   -3.2889   29.4506 N   0  0  0  0  0  0  0  0  0  0  0  0
   43.3837   -2.1770   30.1480 C   0  0  0  0  0  0  0  0  0  0  0  0
   43.1384   -2.1106   31.5453 C   0  0  0  0  0  0  0  0  0  0  0  0
   42.7941   -3.2612   32.2570 C   0  0  0  0  0  0  0  0  0  0  0  0
   42.5512   -3.2209   33.6204 C   0  0  0  0  0  0  0  0  0  0  0  0
   42.6406   -2.0419   34.3190 C   0  0  0  0  0  0  0  0  0  0  0  0
   42.9789   -0.8470   33.6930 C   0  0  0  0  0  0  0  0  0  0  0  0
   43.2260   -0.8924   32.2917 C   0  0  0  0  0  0  0  0  0  0  0  0
   43.5579    0.2793   31.6268 O   0  0  0  0  0  0  0  0  0  0  0  0
   43.0608    0.3283   34.4686 C   0  0  0  0  0  0  0  0  0  0  0  0
   44.2292    1.1080   34.5545 C   0  0  0  0  0  0  0  0  0  0  0  0
   44.2892    2.2720   35.3320 C   0  0  0  0  0  0  0  0  0  0  0  0
   43.1744    2.6864   36.0483 C   0  0  0  0  0  0  0  0  0  0  0  0
   42.0086    1.9339   35.9813 C   0  0  0  0  0  0  0  0  0  0  0  0
   41.9575    0.7800   35.2068 C   0  0  0  0  0  0  0  0  0  0  0  0
   45.0176   -1.2223   25.1540 H   0  0  0  0  0  0  0  0  0  0  0  0
   44.8753    0.0513   27.2558 H   0  0  0  0  0  0  0  0  0  0  0  0
   43.3628   -4.6983   27.1345 H   0  0  0  0  0  0  0  0  0  0  0  0
   43.7299   -5.5447   25.4653 H   0  0  0  0  0  0  0  0  0  0  0  0
   44.0232   -5.6368   23.7944 H   0  0  0  0  0  0  0  0  0  0  0  0
   44.8993   -2.1499   23.6931 H   0  0  0  0  0  0  0  0  0  0  0  0
   44.8030   -3.5621   22.7345 H   0  0  0  0  0  0  0  0  0  0  0  0
   44.0535   -0.2949   29.9132 H   0  0  0  0  0  0  0  0  0  0  0  0
   42.7142   -4.2083   31.7425 H   0  0  0  0  0  0  0  0  0  0  0  0
   42.2865   -4.1275   34.1436 H   0  0  0  0  0  0  0  0  0  0  0  0
   42.4411   -2.0534   35.3818 H   0  0  0  0  0  0  0  0  0  0  0  0
   45.1069    0.7998   34.0052 H   0  0  0  0  0  0  0  0  0  0  0  0
   45.1989    2.8498   35.3812 H   0  0  0  0  0  0  0  0  0  0  0  0
   43.2113    3.5825   36.6508 H   0  0  0  0  0  0  0  0  0  0  0  0
   41.1319    2.2431   36.5325 H   0  0  0  0  0  0  0  0  0  0  0  0
   41.0355    0.2152   35.1785 H   0  0  0  0  0  0  0  0  0  0  0  0
  1  2  2  0
  2  3  1  0
  3  4  2  0
  4  5  1  0
  1  6  1  0
  5  6  2  0
  1  7  1  0
  7  8  1  0
  7  9  2  0
  4 10  1  0
  5 11  1  0
 10 12  1  0
 11 12  2  0
 12 13  1  0
 13 14  2  0
 14 15  1  0
 15 16  2  0
 16 17  1  0
 13 18  1  0
 17 18  2  0
 18 19  1  0
 17 20  1  0
 20 21  2  0
 21 22  1  0
 22 23  2  0
 23 24  1  0
 20 25  1  0
 24 25  2  0
  2 26  1  0
  3 27  1  0
  6 28  1  0
  8 29  1  0
  8 30  1  0
  9 31  1  0
  9 32  1  0
 10 33  1  0
 14 34  1  0
 15 35  1  0
 16 36  1  0
 21 37  1  0
 22 38  1  0
 23 39  1  0
 24 40  1  0
 25 41  1  0
M  CHG  2   9   1  19  -1
M  END
$$$$
