
     RDKit          3D

 34 37  0  0  0  0  0  0  0  0999 V2000
   -4.0972    3.9483    2.0393 C   0  0  0  0  0  0  0  0  0  0  0  0
   -3.8749    5.0195    1.1737 C   0  0  0  0  0  0  0  0  0  0  0  0
   -3.5198    2.7045    1.7767 C   0  0  0  0  0  0  0  0  0  0  0  0
   -3.0832    4.8477    0.0361 C   0  0  0  0  0  0  0  0  0  0  0  0
    5.5820   -1.8081    0.4079 C   0  0  0  0  0  0  0  0  0  0  0  0
    4.2818   -2.2571    0.7058 C   0  0  0  0  0  0  0  0  0  0  0  0
   -2.9177    0.0817    0.1930 C   0  0  0  0  0  0  0  0  0  0  0  0
   -0.9675   -1.3418    0.0253 C   0  0  0  0  0  0  0  0  0  0  0  0
    4.6908    0.3442   -0.3508 C   0  0  0  0  0  0  0  0  0  0  0  0
   -3.0000   -3.0253   -1.6203 C   0  0  0  0  0  0  0  0  0  0  0  0
    5.7997   -0.5052   -0.1218 C   0  0  0  0  0  0  0  0  0  0  0  0
   -2.3653   -1.1931   -0.0031 C   0  0  0  0  0  0  0  0  0  0  0  0
   -2.7097    2.5197    0.6432 C   0  0  0  0  0  0  0  0  0  0  0  0
   -3.2740   -2.3846   -0.2433 C   0  0  2  0  0  0  0  0  0  0  0  0
   -2.0944    1.1932    0.4170 C   0  0  0  0  0  0  0  0  0  0  0  0
   -0.1260   -0.2388    0.2425 C   0  0  0  0  0  0  0  0  0  0  0  0
   -2.5004    3.6021   -0.2460 C   0  0  0  0  0  0  0  0  0  0  0  0
    3.2247   -1.3857    0.4676 C   0  0  0  0  0  0  0  0  0  0  0  0
    3.4231   -0.1379   -0.0360 C   0  0  0  0  0  0  0  0  0  0  0  0
   -4.0294   -4.0613   -1.9582 C   0  0  0  0  0  0  0  0  0  0  0  0
   -0.6979    1.0301    0.4648 C   0  0  0  0  0  0  0  0  0  0  0  0
    7.1708   -0.0416   -0.4505 C   0  0  0  0  0  0  0  0  0  0  0  0
    1.3406   -0.4455    0.2531 C   0  0  0  0  0  0  0  0  0  0  0  0
   -3.1448   -3.3736    0.8870 C   0  0  0  0  0  0  0  0  0  0  0  0
   -1.7348    3.4475   -1.4487 N   0  0  0  0  0  0  0  0  0  0  0  0
    8.1836   -0.3785    0.2867 N   0  0  0  0  0  0  0  0  0  0  0  0
    7.3944    0.7916   -1.5908 N   0  0  0  0  0  0  0  0  0  0  0  0
    1.9131   -1.6133    0.6547 N   0  0  0  0  0  0  0  0  0  0  0  0
    2.2419    0.4744   -0.1812 N   0  0  0  0  0  0  0  0  0  0  0  0
   -5.1439   -3.7154   -2.4333 O   0  0  0  0  0  0  0  0  0  0  0  0
   -3.7748   -5.4038   -1.7074 O   0  0  0  0  0  1  0  0  0  0  0  0
    0.1082    2.1234    0.7703 O   0  0  0  0  0  1  0  0  0  0  0  0
   -2.1616   -4.1620    0.9446 O   0  0  0  0  0  0  0  0  0  0  0  0
   -4.1044   -3.3914    1.8959 O   0  0  0  0  0  0  0  0  0  0  0  0
  1  2  2  0
  1  3  1  0
  2  4  1  0
  3 13  2  0
  4 17  2  0
  5  6  2  0
  5 11  1  0
  6 18  1  0
  7 12  2  0
  7 15  1  0
  8 12  1  0
  8 16  2  0
  9 11  2  0
  9 19  1  0
 14 10  1  6
 10 20  1  0
 11 22  1  0
 12 14  1  0
 13 15  1  0
 13 17  1  0
 14 24  1  0
 15 21  2  0
 16 21  1  0
 16 23  1  0
 17 25  1  0
 18 19  2  0
 18 28  1  0
 19 29  1  0
 20 30  2  0
 20 31  1  0
 21 32  1  0
 22 26  2  3
 22 27  1  0
 23 28  2  0
 23 29  1  0
 24 33  2  0
 24 34  1  0
M  CHG  2  31  -1  32  -1
M  END
$$$$
