3RF4_FUN_B_202_
     RDKit          3D

 21 22  0  0  0  0  0  0  0  0999 V2000
  -47.5840   13.9070   14.9810 N   0  0  0  0  0  0  0  0  0  0  0  0
  -47.0000   14.9840   15.8830 S   0  0  0  0  0  0  0  0  0  0  0  0
  -45.7050   14.5310   16.3800 O   0  0  0  0  0  0  0  0  0  0  0  0
  -47.9030   15.4620   16.9110 O   0  0  0  0  0  0  0  0  0  0  0  0
  -46.6780   16.2950   14.8520 C   0  0  0  0  0  0  0  0  0  0  0  0
  -47.7880   16.8830   14.0010 C   0  0  0  0  0  0  0  0  0  0  0  0
  -49.2250   16.3700   13.9760 Cl  0  0  0  0  0  0  0  0  0  0  0  0
  -47.5500   17.9470   13.1200 C   0  0  0  0  0  0  0  0  0  0  0  0
  -46.2780   18.5270   13.0530 C   0  0  0  0  0  0  0  0  0  0  0  0
  -46.0060   19.5950   12.1710 N   0  0  0  0  0  0  0  0  0  0  0  0
  -46.9820   20.0370   11.1440 C   0  0  0  0  0  0  0  0  0  0  0  0
  -46.9610   19.0770    9.9810 C   0  0  0  0  0  0  0  0  0  0  0  0
  -45.8820   18.8030    9.2270 C   0  0  0  0  0  0  0  0  0  0  0  0
  -46.2660   17.8660    8.2960 C   0  0  0  0  0  0  0  0  0  0  0  0
  -47.5570   17.5600    8.5200 C   0  0  0  0  0  0  0  0  0  0  0  0
  -48.0220   18.3210    9.5890 O   0  0  0  0  0  0  0  0  0  0  0  0
  -45.2080   17.9800   13.9290 C   0  0  0  0  0  0  0  0  0  0  0  0
  -45.3820   16.8570   14.8000 C   0  0  0  0  0  0  0  0  0  0  0  0
  -43.8740   18.5950   13.8770 C   0  0  0  0  0  0  0  0  0  0  0  0
  -43.0420   18.2210   14.7250 O   0  0  0  0  0  0  0  0  0  0  0  0
  -43.6060   19.4580   13.0380 O   0  0  0  0  0  0  0  0  0  0  0  0
  1  2  1  0
  2  3  2  0
  2  4  2  0
  2  5  1  0
  5  6  2  0
  6  7  1  0
  6  8  1  0
  8  9  2  0
  9 10  1  0
 10 11  1  0
 11 12  1  0
 12 13  2  0
 13 14  1  0
 14 15  2  0
 12 16  1  0
 15 16  1  0
  9 17  1  0
  5 18  1  0
 17 18  2  0
 17 19  1  0
 19 20  1  0
 19 21  2  0
M  END
$$$$
