
     RDKit          3D

 16 17  0  0  0  0  0  0  0  0999 V2000
   -3.0083    1.5373   -0.3201 C   0  0  0  0  0  0  0  0  0  0  0  0
   -2.0962    1.7083   -1.3589 C   0  0  0  0  0  0  0  0  0  0  0  0
    3.1046    0.8096    1.2368 C   0  0  0  0  0  0  0  0  0  0  0  0
    2.5880   -0.3649    0.7336 C   0  0  0  0  0  0  0  0  0  0  0  0
   -2.8863    0.4504    0.5461 C   0  0  0  0  0  0  0  0  0  0  0  0
   -1.0679    0.7841   -1.5466 C   0  0  0  0  0  0  0  0  0  0  0  0
    2.9004    1.7668    0.2629 C   0  0  0  0  0  0  0  0  0  0  0  0
    1.4142   -0.9919   -1.4529 C   0  0  0  0  0  0  0  0  0  0  0  0
    2.1027   -0.0481   -0.5188 C   0  0  0  0  0  0  0  0  0  0  0  0
   -1.8448   -0.4830    0.3864 C   0  0  0  0  0  0  0  0  0  0  0  0
   -0.9334   -0.3252   -0.6899 C   0  0  0  0  0  0  0  0  0  0  0  0
   -1.7029   -1.5676    1.3863 C   0  0  0  0  0  0  0  0  0  0  0  0
    0.0785   -1.3167   -0.9532 N   0  0  0  0  0  0  0  0  0  0  0  0
   -2.7160   -1.9950    2.0033 O   0  0  0  0  0  0  0  0  0  0  0  0
   -0.4496   -2.0917    1.6913 O   0  0  0  0  0  0  0  0  0  0  0  0
    2.2991    1.2251   -0.7713 O   0  0  0  0  0  0  0  0  0  0  0  0
  1  2  2  0
  1  5  1  0
  2  6  1  0
  3  4  1  0
  3  7  2  0
  4  9  2  0
  5 10  2  0
  6 11  2  0
  7 16  1  0
  8  9  1  0
  8 13  1  0
  9 16  1  0
 10 11  1  0
 10 12  1  0
 11 13  1  0
 12 14  2  0
 12 15  1  0
M  END
$$$$
