
     RDKit          3D

 11 11  0  0  0  0  0  0  0  0999 V2000
    1.2917   -1.0682   -0.7785 C   0  0  0  0  0  0  0  0  0  0  0  0
   -2.3850   -0.6087    0.0283 C   0  0  0  0  0  0  0  0  0  0  0  0
   -0.8589   -0.4840    0.2095 C   0  0  2  0  0  0  0  0  0  0  0  0
    1.8968    0.0151    0.1539 C   0  0  1  0  0  0  0  0  0  0  0  0
   -0.4558    0.9660    0.5889 C   0  0  2  0  0  0  0  0  0  0  0  0
    1.0214    1.2828    0.2128 C   0  0  2  0  0  0  0  0  0  0  0  0
   -0.1548   -0.9031   -1.0120 N   0  0  0  0  0  0  0  0  0  0  0  0
   -2.8336    0.1554   -1.0603 O   0  0  0  0  0  0  0  0  0  0  0  0
    2.0431   -0.4973    1.4545 O   0  0  0  0  0  0  0  0  0  0  0  0
   -0.6467    1.1383    1.9709 O   0  0  0  0  0  0  0  0  0  0  0  0
    1.0986    1.9958   -0.9991 O   0  0  0  0  0  0  0  0  0  0  0  0
  1  4  1  0
  1  7  1  0
  3  2  1  6
  2  8  1  0
  3  5  1  0
  3  7  1  0
  4  6  1  0
  4  9  1  1
  5  6  1  0
  5 10  1  1
  6 11  1  6
M  END
$$$$
