2J77_NOJ_A_1446_
     RDKit          3D

 11 11  0  0  0  0  0  0  0  0999 V2000
   -0.9100   11.1117   10.8687 C   0  0  0  0  0  0  0  0  0  0  0  0
    0.1406   11.6139    9.8681 C   0  0  0  0  0  0  0  0  0  0  0  0
    0.4811   12.9095   10.3154 O   0  0  0  0  0  0  0  0  0  0  0  0
   -0.4774   11.7419    8.4683 C   0  0  0  0  0  0  0  0  0  0  0  0
    0.5883   12.0358    7.5911 O   0  0  0  0  0  0  0  0  0  0  0  0
   -1.3028   10.4918    8.0633 C   0  0  0  0  0  0  0  0  0  0  0  0
   -1.7316   10.7160    6.7351 O   0  0  0  0  0  0  0  0  0  0  0  0
   -2.4671   10.3730    9.0627 C   0  0  0  0  0  0  0  0  0  0  0  0
   -1.8914   10.1414   10.3852 N   0  0  0  0  0  0  0  0  0  0  0  0
   -3.4126    9.1909    8.7947 C   0  0  0  0  0  0  0  0  0  0  0  0
   -2.7210    7.9572    8.9155 O   0  0  0  0  0  0  0  0  0  0  0  0
  1  2  1  0
  2  3  1  0
  2  4  1  0
  4  5  1  0
  4  6  1  0
  6  7  1  0
  6  8  1  0
  1  9  1  0
  8  9  1  0
  8 10  1  0
 10 11  1  0
M  END
$$$$
