
     RDKit          3D

 20 22  0  0  0  0  0  0  0  0999 V2000
    5.2383   -0.4040   -0.1590 C   0  0  0  0  0  0  0  0  0  0  0  0
   -0.9808    1.9720   -1.0182 C   0  0  0  0  0  0  0  0  0  0  0  0
   -1.3431    2.9127    0.1447 C   0  0  0  0  0  0  0  0  0  0  0  0
    0.1962   -2.0050    0.3758 C   0  0  0  0  0  0  0  0  0  0  0  0
   -0.6135    0.5810   -0.5356 C   0  0  0  0  0  0  0  0  0  0  0  0
   -1.1816   -1.6966    0.2845 C   0  0  0  0  0  0  0  0  0  0  0  0
    1.1123   -1.0269    0.0248 C   0  0  0  0  0  0  0  0  0  0  0  0
   -1.5949   -0.3961   -0.1643 C   0  0  0  0  0  0  0  0  0  0  0  0
    0.7351    0.2109   -0.4093 C   0  0  0  0  0  0  0  0  0  0  0  0
   -2.1871   -2.6297    0.6303 C   0  0  0  0  0  0  0  0  0  0  0  0
   -3.8692   -1.0363    0.1213 C   0  0  0  0  0  0  0  0  0  0  0  0
    2.8636    0.1087   -0.3599 C   0  0  0  0  0  0  0  0  0  0  0  0
   -0.1819    3.2476    0.9679 N   0  0  0  0  0  0  0  0  0  0  0  0
   -5.1275   -0.7382    0.0536 N   0  0  0  0  0  0  0  0  0  0  0  0
    4.1093    0.4640   -0.4704 N   0  0  0  0  0  0  0  0  0  0  0  0
    2.4526   -1.1133    0.0613 N   0  0  0  0  0  0  0  0  0  0  0  0
   -2.9332   -0.1135   -0.2245 N   0  0  0  0  0  0  0  0  0  0  0  0
    1.8408    0.9431   -0.6558 N   0  0  0  0  0  0  0  0  0  0  0  0
   -3.4896   -2.2686    0.5376 N   0  0  0  0  0  0  0  0  0  0  0  0
   -1.9087   -3.9267    1.0696 O   0  0  0  0  0  0  0  0  0  0  0  0
  1 15  1  0
  2  3  1  0
  2  5  1  0
  3 13  1  0
  4  6  2  0
  4  7  1  0
  5  8  2  0
  5  9  1  0
  6  8  1  0
  6 10  1  0
  7  9  2  0
  7 16  1  0
  8 17  1  0
  9 18  1  0
 10 19  2  0
 10 20  1  0
 11 14  2  3
 11 17  1  0
 11 19  1  0
 12 15  2  3
 12 16  1  0
 12 18  1  0
M  END
$$$$
