
     RDKit          3D

 43 47  0  0  0  0  0  0  0  0999 V2000
   -6.0866    5.2418   -1.1494 C   0  0  0  0  0  0  0  0  0  0  0  0
   -5.9012   -3.0415    2.2100 C   0  0  0  0  0  0  0  0  0  0  0  0
   -4.7514   -3.5322    1.5874 C   0  0  0  0  0  0  0  0  0  0  0  0
   -5.9078   -1.7522    2.7456 C   0  0  0  0  0  0  0  0  0  0  0  0
    3.1849    3.9817   -2.4416 C   0  0  0  0  0  0  0  0  0  0  0  0
    2.0359    3.3068   -2.9168 C   0  0  0  0  0  0  0  0  0  0  0  0
   -1.1597   -0.9887    1.7826 C   0  0  0  0  0  0  0  0  0  0  0  0
   -3.6028   -2.7384    1.5051 C   0  0  0  0  0  0  0  0  0  0  0  0
   -4.7630   -0.9536    2.6654 C   0  0  0  0  0  0  0  0  0  0  0  0
   -2.4106   -0.5517    1.9796 C   0  0  0  0  0  0  0  0  0  0  0  0
    3.6508    3.7617   -1.1314 C   0  0  0  0  0  0  0  0  0  0  0  0
    1.3404    2.4070   -2.0864 C   0  0  0  0  0  0  0  0  0  0  0  0
    3.1651   -0.8556   -1.0453 C   0  0  0  0  0  0  0  0  0  0  0  0
    2.1411   -2.3994    0.5113 C   0  0  0  0  0  0  0  0  0  0  0  0
   -3.1289    1.2479   -1.4847 C   0  0  0  0  0  0  0  0  0  0  0  0
   -2.4669    3.1399   -0.1355 C   0  0  0  0  0  0  0  0  0  0  0  0
    4.4224   -1.3862   -0.7463 C   0  0  0  0  0  0  0  0  0  0  0  0
    3.3976   -2.9331    0.8089 C   0  0  0  0  0  0  0  0  0  0  0  0
   -1.9546    0.5795   -1.1294 C   0  0  0  0  0  0  0  0  0  0  0  0
   -1.2936    2.4729    0.2226 C   0  0  0  0  0  0  0  0  0  0  0  0
    0.0007   -0.0326    1.6667 C   0  0  0  0  0  0  0  0  0  0  0  0
    0.6554   -0.7499   -0.7124 C   0  0  0  0  0  0  0  0  0  0  0  0
   -3.5931   -1.4414    2.0582 C   0  0  0  0  0  0  0  0  0  0  0  0
    2.0143   -1.3435   -0.4051 C   0  0  0  0  0  0  0  0  0  0  0  0
   -3.3971    2.5347   -0.9928 C   0  0  0  0  0  0  0  0  0  0  0  0
   -1.0040    1.1872   -0.2792 C   0  0  0  0  0  0  0  0  0  0  0  0
    4.5546   -2.4170    0.1998 C   0  0  0  0  0  0  0  0  0  0  0  0
    2.9368    2.8686   -0.3393 C   0  0  0  0  0  0  0  0  0  0  0  0
    1.8275    2.2208   -0.7899 C   0  0  0  0  0  0  0  0  0  0  0  0
   -4.6456    3.2394   -1.3589 C   0  0  0  0  0  0  0  0  0  0  0  0
    0.2661    0.4596    0.2062 C   0  0  1  0  0  0  0  0  0  0  0  0
    5.9079   -3.0224    0.4887 C   0  0  0  0  0  0  0  0  0  0  0  0
    6.9026   -2.0681    0.3589 F   0  0  0  0  0  0  0  0  0  0  0  0
    5.9519   -3.5128    1.7829 F   0  0  0  0  0  0  0  0  0  0  0  0
    3.1951    2.4737    0.9181 N   0  0  0  0  0  0  0  0  0  0  0  0
    2.2447    1.5918    1.2204 N   0  0  0  0  0  0  0  0  0  0  0  0
    1.3941    1.4218    0.2082 N   0  0  0  0  0  0  0  0  0  0  0  0
   -5.4810    2.6897   -2.1295 O   0  0  0  0  0  0  0  0  0  0  0  0
    7.7451   -5.0732   -0.3269 O   0  0  0  0  0  0  0  0  0  0  0  0
    5.0329   -5.5652   -0.5379 O   0  0  0  0  0  0  0  0  0  0  0  0
    6.2526   -3.8502   -2.0880 O   0  0  0  0  0  0  0  0  0  0  0  0
   -4.9003    4.5172   -0.8485 O   0  0  0  0  0  0  0  0  0  0  0  0
    6.2386   -4.3851   -0.6741 P   0  0  0  0  0  5  0  0  0  0  0  0
  1 42  1  0
  2  3  2  0
  2  4  1  0
  3  8  1  0
  4  9  2  0
  5  6  2  0
  5 11  1  0
  6 12  1  0
  7 10  2  0
  7 21  1  0
  8 23  2  0
  9 23  1  0
 10 23  1  0
 11 28  2  0
 12 29  2  0
 13 17  2  0
 13 24  1  0
 14 18  1  0
 14 24  2  0
 15 19  2  0
 15 25  1  0
 16 20  1  0
 16 25  2  0
 17 27  1  0
 18 27  2  0
 19 26  1  0
 20 26  2  0
 31 21  1  1
 22 24  1  0
 22 31  1  0
 25 30  1  0
 26 31  1  0
 27 32  1  0
 28 29  1  0
 28 35  1  0
 29 37  1  0
 30 38  2  0
 30 42  1  0
 31 37  1  0
 32 33  1  0
 32 34  1  0
 32 43  1  0
 35 36  2  0
 36 37  1  0
 39 43  1  0
 40 43  1  0
 41 43  2  0
M  END
$$$$
