2FJM_073_B_801_
     RDKit          3D

 43 47  0  0  0  0  0  0  0  0999 V2000
    7.3720   48.4570   12.4360 O   0  0  0  0  0  0  0  0  0  0  0  0
    8.2260   47.7340   12.9240 C   0  0  0  0  0  0  0  0  0  0  0  0
    9.6010   47.9030   12.4810 O   0  0  0  0  0  0  0  0  0  0  0  0
    9.9240   48.5240   11.2270 C   0  0  0  0  0  0  0  0  0  0  0  0
    7.8770   46.6440   13.9190 C   0  0  0  0  0  0  0  0  0  0  0  0
    6.5430   46.4110   14.2910 C   0  0  0  0  0  0  0  0  0  0  0  0
    6.2420   45.3880   15.1890 C   0  0  0  0  0  0  0  0  0  0  0  0
    8.8980   45.8520   14.4430 C   0  0  0  0  0  0  0  0  0  0  0  0
    8.6020   44.8260   15.3450 C   0  0  0  0  0  0  0  0  0  0  0  0
    7.2680   44.5910   15.7170 C   0  0  0  0  0  0  0  0  0  0  0  0
    6.9270   43.4660   16.6650 C   0  0  0  0  0  0  0  0  0  0  0  0
    5.8630   42.6080   16.0160 N   0  0  0  0  0  0  0  0  0  0  0  0
    4.8500   42.0450   16.7870 N   0  0  0  0  0  0  0  0  0  0  0  0
    4.0920   41.3270   15.8680 N   0  0  0  0  0  0  0  0  0  0  0  0
    4.6440   41.4380   14.6330 C   0  0  0  0  0  0  0  0  0  0  0  0
    4.2500   40.8990   13.4090 C   0  0  0  0  0  0  0  0  0  0  0  0
    5.7760   42.2550   14.7110 C   0  0  0  0  0  0  0  0  0  0  0  0
    6.5120   42.5230   13.5420 C   0  0  0  0  0  0  0  0  0  0  0  0
    6.1120   41.9870   12.3160 C   0  0  0  0  0  0  0  0  0  0  0  0
    4.9740   41.1700   12.2450 C   0  0  0  0  0  0  0  0  0  0  0  0
    6.3720   44.0890   17.9710 C   0  0  0  0  0  0  0  0  0  0  0  0
    7.3300   44.8740   18.8450 C   0  0  0  0  0  0  0  0  0  0  0  0
    8.0830   44.2170   19.8230 C   0  0  0  0  0  0  0  0  0  0  0  0
    8.9470   44.9250   20.6530 C   0  0  0  0  0  0  0  0  0  0  0  0
    9.0440   46.3180   20.5310 C   0  0  0  0  0  0  0  0  0  0  0  0
    9.9920   47.0820   21.4110 C   0  0  0  0  0  0  0  0  0  0  0  0
   11.0340   46.2750   21.5510 F   0  0  0  0  0  0  0  0  0  0  0  0
    9.3560   47.5710   23.0880 P   0  0  0  0  0  0  0  0  0  0  0  0
    8.2600   48.5830   22.8990 O   0  0  0  0  0  0  0  0  0  0  0  0
    8.8020   46.2930   23.6310 O   0  0  0  0  0  0  0  0  0  0  0  0
   10.6180   48.0710   23.7410 O   0  0  0  0  0  0  0  0  0  0  0  0
   10.3770   48.1910   20.7870 F   0  0  0  0  0  0  0  0  0  0  0  0
    8.3000   46.9730   19.5470 C   0  0  0  0  0  0  0  0  0  0  0  0
    7.4290   46.2700   18.7150 C   0  0  0  0  0  0  0  0  0  0  0  0
    8.1350   42.5360   16.8740 C   0  0  0  0  0  0  0  0  0  0  0  0
    7.8220   41.2910   17.7040 C   0  0  0  0  0  0  0  0  0  0  0  0
    8.6420   40.9070   18.6970 C   0  0  0  0  0  0  0  0  0  0  0  0
    8.3800   39.6870   19.5130 C   0  0  0  0  0  0  0  0  0  0  0  0
    7.1090   39.0850   19.5500 C   0  0  0  0  0  0  0  0  0  0  0  0
    6.8840   37.9380   20.3170 C   0  0  0  0  0  0  0  0  0  0  0  0
    7.9310   37.3870   21.0510 C   0  0  0  0  0  0  0  0  0  0  0  0
    9.1940   37.9880   21.0230 C   0  0  0  0  0  0  0  0  0  0  0  0
    9.4180   39.1260   20.2430 C   0  0  0  0  0  0  0  0  0  0  0  0
  1  2  2  0
  2  3  1  0
  3  4  1  0
  2  5  1  0
  5  6  2  0
  6  7  1  0
  5  8  1  0
  8  9  2  0
  7 10  2  0
  9 10  1  0
 10 11  1  0
 11 12  1  0
 12 13  1  0
 13 14  2  0
 14 15  1  0
 15 16  1  0
 12 17  1  0
 15 17  2  0
 17 18  1  0
 18 19  2  0
 16 20  2  0
 19 20  1  0
 11 21  1  0
 21 22  1  0
 22 23  2  0
 23 24  1  0
 24 25  2  0
 25 26  1  0
 26 27  1  0
 26 28  1  0
 28 29  1  0
 28 30  2  0
 28 31  1  0
 26 32  1  0
 25 33  1  0
 22 34  1  0
 33 34  2  0
 11 35  1  0
 35 36  1  0
 36 37  2  3
 37 38  1  0
 38 39  2  0
 39 40  1  0
 40 41  2  0
 41 42  1  0
 38 43  1  0
 42 43  2  0
M  END
$$$$
