1O3P_655_B_251_
     RDKit          3D

 45 48  0  0  0  0  0  0  0  0999 V2000
    8.7880    1.4610   24.6060 C   0  0  0  0  0  0  0  0  0  0  0  0
    9.5720    1.3020   23.4300 C   0  0  0  0  0  0  0  0  0  0  0  0
   10.2020    2.3670   22.8100 C   0  0  0  0  0  0  0  0  0  0  0  0
    9.9720    3.6110   23.3310 C   0  0  0  0  0  0  0  0  0  0  0  0
    9.2090    3.8120   24.4350 C   0  0  0  0  0  0  0  0  0  0  0  0
    8.5920    2.7660   25.0710 C   0  0  0  0  0  0  0  0  0  0  0  0
    8.1880    0.3730   25.2350 C   0  0  0  0  0  0  0  0  0  0  0  0
    7.7520    0.4860   26.4730 N   0  0  0  0  0  0  0  0  0  0  0  0
    8.0910   -0.7720   24.6100 N   0  0  0  0  0  0  0  0  0  0  0  0
   10.3730    4.7820   22.9850 N   0  0  0  0  0  0  0  0  0  0  0  0
    9.1170    5.0700   24.7840 N   0  0  0  0  0  0  0  0  0  0  0  0
    9.8770    5.6220   23.8530 C   0  0  0  0  0  0  0  0  0  0  0  0
   10.1130    6.9650   23.7750 C   0  0  0  0  0  0  0  0  0  0  0  0
    9.7870    7.8200   24.8490 C   0  0  0  0  0  0  0  0  0  0  0  0
   10.0400    9.1930   24.7850 C   0  0  0  0  0  0  0  0  0  0  0  0
   10.6290    9.7250   23.6570 C   0  0  0  0  0  0  0  0  0  0  0  0
   10.9610    8.8870   22.5700 C   0  0  0  0  0  0  0  0  0  0  0  0
   11.5570    9.3300   21.3960 O   0  0  0  0  0  0  0  0  0  0  0  0
   10.7210    7.5300   22.6460 C   0  0  0  0  0  0  0  0  0  0  0  0
   11.1000    6.7680   21.5450 O   0  0  0  0  0  0  0  0  0  0  0  0
   11.8090   11.0280   19.7310 C   0  0  0  0  0  0  0  0  0  0  0  0
   11.8600   10.7160   21.2250 C   0  0  0  0  0  0  0  0  0  0  0  0
   13.2910   10.8790   21.6920 C   0  0  0  0  0  0  0  0  0  0  0  0
   14.1130   11.3710   20.5140 C   0  0  0  0  0  0  0  0  0  0  0  0
   13.2440   11.2120   19.2770 C   0  0  0  0  0  0  0  0  0  0  0  0
    9.7460    0.3170   23.0410 H   0  0  0  0  0  0  0  0  0  0  0  0
   10.8160    2.2530   21.9280 H   0  0  0  0  0  0  0  0  0  0  0  0
    7.9880    2.9730   25.9480 H   0  0  0  0  0  0  0  0  0  0  0  0
    7.8470    1.3630   26.9570 H   0  0  0  0  0  0  0  0  0  0  0  0
    7.3230   -0.2440   27.0080 H   0  0  0  0  0  0  0  0  0  0  0  0
    8.4790   -0.8670   23.6860 H   0  0  0  0  0  0  0  0  0  0  0  0
    7.7370   -1.6000   25.0330 H   0  0  0  0  0  0  0  0  0  0  0  0
   10.9470    5.0650   22.2400 H   0  0  0  0  0  0  0  0  0  0  0  0
    9.3280    7.4170   25.7440 H   0  0  0  0  0  0  0  0  0  0  0  0
    9.7820    9.8360   25.6150 H   0  0  0  0  0  0  0  0  0  0  0  0
   10.8130   10.7830   23.6280 H   0  0  0  0  0  0  0  0  0  0  0  0
   11.3210   10.2350   19.1810 H   0  0  0  0  0  0  0  0  0  0  0  0
   11.2500   11.9450   19.5790 H   0  0  0  0  0  0  0  0  0  0  0  0
   11.1590   11.3490   21.7600 H   0  0  0  0  0  0  0  0  0  0  0  0
   13.3150   11.6290   22.4630 H   0  0  0  0  0  0  0  0  0  0  0  0
   13.6920    9.9490   22.0750 H   0  0  0  0  0  0  0  0  0  0  0  0
   15.0200   10.7900   20.4110 H   0  0  0  0  0  0  0  0  0  0  0  0
   14.3660   12.4060   20.6530 H   0  0  0  0  0  0  0  0  0  0  0  0
   13.5670   10.3310   18.7440 H   0  0  0  0  0  0  0  0  0  0  0  0
   13.3320   12.0730   18.6370 H   0  0  0  0  0  0  0  0  0  0  0  0
  1  2  2  0
  2  3  1  0
  3  4  2  0
  4  5  1  0
  1  6  1  0
  5  6  2  0
  1  7  1  0
  7  8  1  0
  7  9  2  0
  4 10  1  0
  5 11  1  0
 10 12  1  0
 11 12  2  0
 12 13  1  0
 13 14  2  0
 14 15  1  0
 15 16  2  0
 16 17  1  0
 17 18  1  0
 13 19  1  0
 17 19  2  0
 19 20  1  0
 18 22  1  0
 21 22  1  0
 22 23  1  0
 23 24  1  0
 21 25  1  0
 24 25  1  0
  2 26  1  0
  3 27  1  0
  6 28  1  0
  8 29  1  0
  8 30  1  0
  9 31  1  0
  9 32  1  0
 10 33  1  0
 14 34  1  0
 15 35  1  0
 16 36  1  0
 21 37  1  0
 21 38  1  0
 22 39  1  0
 23 40  1  0
 23 41  1  0
 24 42  1  0
 24 43  1  0
 25 44  1  0
 25 45  1  0
M  CHG  2   9   1  20  -1
M  END
$$$$
