3S76_EVH_A_262_
     RDKit          3D

  9  9  0  0  0  0  0  0  0  0999 V2000
   15.0376    0.9664   16.8296 S   0  0  0  0  0  0  0  0  0  0  0  0
   16.7588    2.3834   15.2398 N   0  0  0  0  0  0  0  0  0  0  0  0
   13.5586    0.9966   16.7944 O   0  0  0  0  0  0  0  0  0  0  0  0
   15.4930    2.1960   15.7474 C   0  0  0  0  0  0  0  0  0  0  0  0
   15.6675    1.2459   18.0695 O   0  0  0  0  0  0  0  0  0  0  0  0
   14.6925    3.1790   15.2747 N   0  0  0  0  0  0  0  0  0  0  0  0
   15.4036    3.9502   14.4009 C   0  0  0  0  0  0  0  0  0  0  0  0
   16.7042    3.4642   14.4058 C   0  0  0  0  0  0  0  0  0  0  0  0
   15.6112   -0.3595   16.2161 N   0  0  0  0  0  0  0  0  0  0  0  0
  1  3  2  0
  1  4  1  0
  2  4  1  0
  1  5  2  0
  4  6  2  0
  6  7  1  0
  2  8  1  0
  7  8  2  0
  1  9  1  0
M  END
$$$$
