
     RDKit          3D

 27 28  0  0  0  0  0  0  0  0999 V2000
    8.2526   -0.5862   -0.0796 C   0  0  0  0  0  0  0  0  0  0  0  0
    7.4210    0.0408   -1.0117 C   0  0  0  0  0  0  0  0  0  0  0  0
    7.6961   -1.3091    0.9790 C   0  0  0  0  0  0  0  0  0  0  0  0
   -5.0239    1.8401    1.1949 C   0  0  0  0  0  0  0  0  0  0  0  0
    3.4581    0.3556    1.1124 C   0  0  0  0  0  0  0  0  0  0  0  0
    6.0314   -0.0572   -0.8884 C   0  0  0  0  0  0  0  0  0  0  0  0
    6.3069   -1.4078    1.1074 C   0  0  0  0  0  0  0  0  0  0  0  0
    3.9690   -0.8597    0.3257 C   0  0  0  0  0  0  0  0  0  0  0  0
   -3.7141    1.8605    0.7119 C   0  0  0  0  0  0  0  0  0  0  0  0
   -5.8754    0.7826    0.8702 C   0  0  0  0  0  0  0  0  0  0  0  0
    1.9651    0.2626    1.4539 C   0  0  0  0  0  0  0  0  0  0  0  0
   -4.1018   -0.2492   -0.4185 C   0  0  0  0  0  0  0  0  0  0  0  0
   -0.8048    0.7728    0.5484 C   0  0  0  0  0  0  0  0  0  0  0  0
    5.4643   -0.7918    0.1668 C   0  0  0  0  0  0  0  0  0  0  0  0
   -3.2374    0.8146   -0.1002 C   0  0  0  0  0  0  0  0  0  0  0  0
   -5.4291   -0.2608    0.0471 C   0  0  0  0  0  0  0  0  0  0  0  0
   -1.8124    0.8170   -0.6190 C   0  0  1  0  0  0  0  0  0  0  0  0
   -1.5987    2.0058   -1.5194 C   0  0  0  0  0  0  0  0  0  0  0  0
   -6.2796   -2.1266   -1.4618 C   0  0  0  0  0  0  0  0  0  0  0  0
   -5.9054   -1.5968   -2.5847 N   0  0  0  0  0  0  0  0  0  0  0  0
   -6.7501   -3.4744   -1.4494 N   0  0  0  0  0  0  0  0  0  0  0  0
   -6.3158   -1.3539   -0.2504 N   0  0  0  0  0  0  0  0  0  0  0  0
   -1.7337    1.8779   -2.7660 O   0  0  0  0  0  0  0  0  0  0  0  0
   -1.2977    3.2557   -0.9836 O   0  0  0  0  0  0  0  0  0  0  0  0
    1.4597    1.6793   -0.9956 O   0  0  0  0  0  0  0  0  0  0  0  0
    0.9062   -0.8821   -0.7888 O   0  0  0  0  0  0  0  0  0  0  0  0
    0.8953    0.4183   -0.0164 P   0  0  1  0  0  5  0  0  0  0  0  0
  1  2  2  0
  1  3  1  0
  2  6  1  0
  3  7  2  0
  4  9  2  0
  4 10  1  0
  5  8  1  0
  5 11  1  0
  6 14  2  0
  7 14  1  0
  8 14  1  0
  9 15  1  0
 10 16  2  0
 11 27  1  0
 12 15  2  0
 12 16  1  0
 17 13  1  1
 13 27  1  0
 15 17  1  0
 16 22  1  0
 17 18  1  0
 18 23  2  0
 18 24  1  0
 19 20  2  3
 19 21  1  0
 19 22  1  0
 27 25  1  6
 26 27  2  0
M  END
$$$$
