
     RDKit          3D

 44 46  0  0  0  0  0  0  0  0999 V2000
   -0.5567   -3.3522   -2.8853 C   0  0  0  0  0  0  0  0  0  0  0  0
    0.5925   -4.1111   -0.7841 C   0  0  0  0  0  0  0  0  0  0  0  0
   -5.5537    0.9405   -4.9614 C   0  0  0  0  0  0  0  0  0  0  0  0
   -5.8104    0.4993    5.7786 C   0  0  0  0  0  0  0  0  0  0  0  0
   -4.5596   -0.0394   -5.0375 C   0  0  0  0  0  0  0  0  0  0  0  0
   -5.9611    1.4290   -3.7169 C   0  0  0  0  0  0  0  0  0  0  0  0
   -6.0412   -0.4780    4.8070 C   0  0  0  0  0  0  0  0  0  0  0  0
   -4.8339    1.4768    5.5702 C   0  0  0  0  0  0  0  0  0  0  0  0
    6.7339   -0.1560   -1.6631 C   0  0  0  0  0  0  0  0  0  0  0  0
   -3.9626   -0.5270   -3.8712 C   0  0  0  0  0  0  0  0  0  0  0  0
   -5.3687    0.9428   -2.5481 C   0  0  0  0  0  0  0  0  0  0  0  0
   -5.2976   -0.4756    3.6218 C   0  0  0  0  0  0  0  0  0  0  0  0
   -4.0857    1.4810    4.3888 C   0  0  0  0  0  0  0  0  0  0  0  0
    5.3801   -0.0372   -1.3523 C   0  0  0  0  0  0  0  0  0  0  0  0
    7.6913   -0.1652   -0.6482 C   0  0  0  0  0  0  0  0  0  0  0  0
   -3.6980   -0.5395   -1.3536 C   0  0  0  0  0  0  0  0  0  0  0  0
    5.9363    0.0359    1.0081 C   0  0  0  0  0  0  0  0  0  0  0  0
   -3.5554    0.5476    2.1134 C   0  0  0  0  0  0  0  0  0  0  0  0
    2.5944   -0.7725   -0.4738 C   0  0  0  0  0  0  0  0  0  0  0  0
    0.3769   -2.9201   -1.7373 C   0  0  0  0  0  0  0  0  0  0  0  0
   -4.3614   -0.0372   -2.6150 C   0  0  0  0  0  0  0  0  0  0  0  0
   -4.3038    0.4973    3.4127 C   0  0  0  0  0  0  0  0  0  0  0  0
    4.9612    0.0298   -0.0078 C   0  0  0  0  0  0  0  0  0  0  0  0
    7.3042   -0.0375    0.6917 C   0  0  0  0  0  0  0  0  0  0  0  0
    3.4950    0.1763    0.3568 C   0  0  1  0  0  0  0  0  0  0  0  0
   -2.4901    0.3228   -0.9202 C   0  0  1  0  0  0  0  0  0  0  0  0
   -1.4065    0.2786   -1.9756 C   0  0  0  0  0  0  0  0  0  0  0  0
   -0.2048   -1.6782   -1.0045 C   0  0  2  0  0  0  0  0  0  0  0  0
    3.0996    1.6206    0.1853 C   0  0  0  0  0  0  0  0  0  0  0  0
    8.2057    0.7007    2.9481 C   0  0  0  0  0  0  0  0  0  0  0  0
   -3.6677    2.1883    0.2308 C   0  0  0  0  0  0  0  0  0  0  0  0
    7.5597    1.8235    3.0051 N   0  0  0  0  0  0  0  0  0  0  0  0
    8.8999    0.2352    4.1046 N   0  0  0  0  0  0  0  0  0  0  0  0
    8.3076   -0.0362    1.7200 N   0  0  0  0  0  0  0  0  0  0  0  0
   -2.8800    1.7168   -0.6955 N   0  0  0  0  0  0  0  0  0  0  0  0
   -0.4595   -0.6203   -1.9884 N   0  0  0  0  0  0  0  0  0  0  0  0
   -1.4429    1.2217   -3.0010 O   0  0  0  0  0  0  0  0  0  0  0  0
    3.1445    2.4032    1.1722 O   0  0  0  0  0  0  0  0  0  0  0  0
    2.7379    2.1096   -1.0687 O   0  0  0  0  0  0  0  0  0  0  0  0
   -3.9753    3.5457    0.2226 O   0  0  0  0  0  0  0  0  0  0  0  0
    0.3481    0.4698    0.8590 O   0  0  0  0  0  0  0  0  0  0  0  0
    1.0452   -1.9656    1.4378 O   0  0  0  0  0  0  0  0  0  0  0  0
   -4.2700    1.3811    1.2068 O   0  0  0  0  0  0  0  0  0  0  0  0
    0.9393   -1.0070    0.2732 P   0  0  2  0  0  5  0  0  0  0  0  0
  1 20  1  0
  2 20  1  0
  3  5  2  0
  3  6  1  0
  4  7  2  0
  4  8  1  0
  5 10  1  0
  6 11  2  0
  7 12  1  0
  8 13  2  0
  9 14  2  0
  9 15  1  0
 10 21  2  0
 11 21  1  0
 12 22  2  0
 13 22  1  0
 14 23  1  0
 15 24  2  0
 16 21  1  0
 26 16  1  6
 17 23  2  0
 17 24  1  0
 18 22  1  0
 18 43  1  0
 25 19  1  6
 19 44  1  0
 28 20  1  6
 23 25  1  0
 24 34  1  0
 25 29  1  0
 26 27  1  0
 26 35  1  0
 27 36  2  3
 27 37  1  0
 28 36  1  0
 28 44  1  0
 29 38  2  0
 29 39  1  0
 30 32  2  3
 30 33  1  0
 30 34  1  0
 31 35  2  3
 31 40  1  0
 31 43  1  0
 44 41  1  1
 42 44  2  0
M  END
$$$$
