2PIZ_606_C_601_
     RDKit          3D

 27 28  0  0  0  0  0  0  0  0999 V2000
    0.5934   48.9239  136.2454 C   0  0  0  0  0  0  0  0  0  0  0  0
    0.6046   49.9222  137.2545 C   0  0  0  0  0  0  0  0  0  0  0  0
   -0.6138   50.5060  137.6884 C   0  0  0  0  0  0  0  0  0  0  0  0
   -1.8435   50.0905  137.1132 C   0  0  0  0  0  0  0  0  0  0  0  0
   -1.8557   49.0922  136.1041 C   0  0  0  0  0  0  0  0  0  0  0  0
   -0.6363   48.5064  135.6681 C   0  0  0  0  0  0  0  0  0  0  0  0
   -0.6460   47.4271  134.5769 C   0  0  0  0  0  0  0  0  0  0  0  0
   -0.6969   46.0220  135.1869 C   0  0  0  0  0  0  0  0  0  0  0  0
   -0.6413   44.9338  134.1065 C   0  0  0  0  0  0  0  0  0  0  0  0
   -0.7744   43.2682  134.8242 P   0  0  0  0  0  0  0  0  0  0  0  0
   -0.5365   42.2773  133.7597 O   0  0  0  0  0  0  0  0  0  0  0  0
   -2.0575   43.2066  135.5661 O   0  0  0  0  0  0  0  0  0  0  0  0
    0.6187   43.1826  135.9969 C   0  0  0  0  0  0  0  0  0  0  0  0
    0.8469   41.7076  136.4281 C   0  0  0  0  0  0  0  0  0  0  0  0
   -0.3359   41.1653  137.2686 C   0  0  0  0  0  0  0  0  0  0  0  0
   -0.8399   41.9267  138.1361 O   0  0  0  0  0  0  0  0  0  0  0  0
   -0.6615   39.9794  137.0586 O   0  0  0  0  0  0  0  0  0  0  0  0
    2.1239   41.5060  137.2704 C   0  0  0  0  0  0  0  0  0  0  0  0
    2.5747   40.1828  137.4561 C   0  0  0  0  0  0  0  0  0  0  0  0
    2.7774   42.5756  137.9511 C   0  0  0  0  0  0  0  0  0  0  0  0
    3.8683   42.2957  138.8150 C   0  0  0  0  0  0  0  0  0  0  0  0
    4.3063   40.9611  139.0017 C   0  0  0  0  0  0  0  0  0  0  0  0
    3.6546   39.9025  138.3243 C   0  0  0  0  0  0  0  0  0  0  0  0
    4.0040   38.6309  138.5608 N   0  0  0  0  0  0  0  0  0  0  0  0
    4.5846   37.8486  137.6347 C   0  0  0  0  0  0  0  0  0  0  0  0
    5.0848   38.3644  136.5040 N   0  0  0  0  0  0  0  0  0  0  0  0
    4.6765   36.5450  137.8630 N   0  0  0  0  0  0  0  0  0  0  0  0
  1  2  2  0
  2  3  1  0
  3  4  2  0
  4  5  1  0
  1  6  1  0
  5  6  2  0
  6  7  1  0
  7  8  1  0
  8  9  1  0
  9 10  1  0
 10 11  2  0
 10 12  1  0
 10 13  1  0
 13 14  1  0
 14 15  1  0
 15 16  2  0
 15 17  1  0
 14 18  1  0
 18 19  2  0
 18 20  1  0
 20 21  2  0
 21 22  1  0
 19 23  1  0
 22 23  2  0
 23 24  1  0
 24 25  1  0
 25 26  1  0
 25 27  2  0
M  END
$$$$
