2PJA_33Z_C_601_
     RDKit          3D

 44 46  0  0  0  0  0  0  0  0999 V2000
    0.2140   48.9750  138.0850 C   0  0  0  0  0  0  0  0  0  0  0  0
    1.6160   49.0350  137.8870 C   0  0  0  0  0  0  0  0  0  0  0  0
    2.1390   49.6960  136.7480 C   0  0  0  0  0  0  0  0  0  0  0  0
    1.2580   50.2970  135.8080 C   0  0  0  0  0  0  0  0  0  0  0  0
   -0.1450   50.2380  136.0050 C   0  0  0  0  0  0  0  0  0  0  0  0
   -0.6690   49.5730  137.1420 C   0  0  0  0  0  0  0  0  0  0  0  0
   -2.0470   49.4350  137.3040 C   0  0  0  0  0  0  0  0  0  0  0  0
   -2.5520   48.0990  137.5290 O   0  0  0  0  0  0  0  0  0  0  0  0
   -3.8760   47.9650  137.8690 C   0  0  0  0  0  0  0  0  0  0  0  0
   -4.6330   48.9420  137.8880 O   0  0  0  0  0  0  0  0  0  0  0  0
   -4.3000   46.7180  138.1360 N   0  0  0  0  0  0  0  0  0  0  0  0
   -3.3900   45.5400  138.0610 C   0  0  0  0  0  0  0  0  0  0  0  0
   -4.0250   44.3350  138.7670 C   0  0  0  0  0  0  0  0  0  0  0  0
   -4.2070   44.6130  140.2660 C   0  0  0  0  0  0  0  0  0  0  0  0
   -3.0780   44.6430  141.1250 C   0  0  0  0  0  0  0  0  0  0  0  0
   -3.2480   44.8970  142.5120 C   0  0  0  0  0  0  0  0  0  0  0  0
   -4.5470   45.1180  143.0350 C   0  0  0  0  0  0  0  0  0  0  0  0
   -5.6740   45.0860  142.1780 C   0  0  0  0  0  0  0  0  0  0  0  0
   -5.5060   44.8340  140.7920 C   0  0  0  0  0  0  0  0  0  0  0  0
   -3.1300   45.2140  136.5900 C   0  0  0  0  0  0  0  0  0  0  0  0
   -4.0640   45.1920  135.7820 O   0  0  0  0  0  0  0  0  0  0  0  0
   -1.8440   45.0430  136.2670 N   0  0  0  0  0  0  0  0  0  0  0  0
   -1.4330   44.7480  134.8900 C   0  0  0  0  0  0  0  0  0  0  0  0
   -0.5420   45.8660  134.2870 C   0  0  0  0  0  0  0  0  0  0  0  0
    0.6510   46.2410  135.1680 C   0  0  0  0  0  0  0  0  0  0  0  0
   -1.3960   47.1200  134.0230 C   0  0  0  0  0  0  0  0  0  0  0  0
   -0.7950   43.0290  134.7110 P   0  0  0  0  0  0  0  0  0  0  0  0
   -0.4750   42.8090  133.2800 O   0  0  0  0  0  0  0  0  0  0  0  0
   -1.8540   42.2150  135.3440 O   0  0  0  0  0  0  0  0  0  0  0  0
    0.7340   42.9040  135.7160 C   0  0  0  0  0  0  0  0  0  0  0  0
    1.0150   41.4260  136.1600 C   0  0  0  0  0  0  0  0  0  0  0  0
   -0.1190   40.8690  137.0620 C   0  0  0  0  0  0  0  0  0  0  0  0
   -0.5960   41.6340  137.9240 O   0  0  0  0  0  0  0  0  0  0  0  0
   -0.4470   39.6770  136.8790 O   0  0  0  0  0  0  0  0  0  0  0  0
    2.3270   41.2700  136.9770 C   0  0  0  0  0  0  0  0  0  0  0  0
    2.7120   39.9630  137.3370 C   0  0  0  0  0  0  0  0  0  0  0  0
    3.0300   42.3810  137.5350 C   0  0  0  0  0  0  0  0  0  0  0  0
    4.0880   42.1560  138.4600 C   0  0  0  0  0  0  0  0  0  0  0  0
    4.4480   40.8310  138.8270 C   0  0  0  0  0  0  0  0  0  0  0  0
    3.7510   39.7320  138.2580 C   0  0  0  0  0  0  0  0  0  0  0  0
    4.0310   38.4630  138.6000 N   0  0  0  0  0  0  0  0  0  0  0  0
    4.7560   37.6610  137.7950 C   0  0  0  0  0  0  0  0  0  0  0  0
    5.2800   38.1250  136.6560 N   0  0  0  0  0  0  0  0  0  0  0  0
    4.9930   36.4090  138.1640 N   0  0  0  0  0  0  0  0  0  0  0  0
  1  2  2  0
  2  3  1  0
  3  4  2  0
  4  5  1  0
  1  6  1  0
  5  6  2  0
  6  7  1  0
  7  8  1  0
  8  9  1  0
  9 10  2  0
  9 11  1  0
 11 12  1  0
 12 13  1  0
 13 14  1  0
 14 15  2  0
 15 16  1  0
 16 17  2  0
 17 18  1  0
 14 19  1  0
 18 19  2  0
 12 20  1  0
 20 21  2  0
 20 22  1  0
 22 23  1  0
 23 24  1  0
 24 25  1  0
 24 26  1  0
 23 27  1  0
 27 28  2  0
 27 29  1  0
 27 30  1  0
 30 31  1  0
 31 32  1  0
 32 33  1  0
 32 34  2  0
 31 35  1  0
 35 36  2  0
 35 37  1  0
 37 38  2  0
 38 39  1  0
 36 40  1  0
 39 40  2  0
 40 41  1  0
 41 42  1  0
 42 43  2  0
 42 44  1  0
M  END
$$$$
