1GI6_124_A_246_
     RDKit          3D

 32 34  0  0  0  0  0  0  0  0999 V2000
   44.2322   -2.9376   26.1495 C   0  0  0  0  0  0  0  0  0  0  0  0
   44.7021   -1.6096   26.1833 C   0  0  0  0  0  0  0  0  0  0  0  0
   44.6758   -0.8750   27.3551 C   0  0  0  0  0  0  0  0  0  0  0  0
   44.1835   -1.4715   28.4831 C   0  0  0  0  0  0  0  0  0  0  0  0
   43.7264   -2.7417   28.4622 C   0  0  0  0  0  0  0  0  0  0  0  0
   43.7299   -3.5157   27.3168 C   0  0  0  0  0  0  0  0  0  0  0  0
   44.3014   -3.6536   24.9539 C   0  0  0  0  0  0  0  0  0  0  0  0
   44.0955   -4.9559   24.9799 N   0  0  0  0  0  0  0  0  0  0  0  0
   44.5856   -3.0119   23.8291 N   0  0  0  0  0  0  0  0  0  0  0  0
   44.0710   -0.9829   29.6942 N   0  0  0  0  0  0  0  0  0  0  0  0
   43.3205   -3.0172   29.7451 C   0  0  0  0  0  0  0  0  0  0  0  0
   43.5608   -1.8871   30.4904 C   0  0  0  0  0  0  0  0  0  0  0  0
   43.3217   -1.7092   31.8450 C   0  0  0  0  0  0  0  0  0  0  0  0
   43.0662   -2.8267   32.6371 C   0  0  0  0  0  0  0  0  0  0  0  0
   42.8252   -2.6868   33.9911 C   0  0  0  0  0  0  0  0  0  0  0  0
   42.8296   -1.4175   34.5572 C   0  0  0  0  0  0  0  0  0  0  0  0
   43.0841   -0.2831   33.7643 C   0  0  0  0  0  0  0  0  0  0  0  0
   43.3281   -0.4268   32.3993 C   0  0  0  0  0  0  0  0  0  0  0  0
   43.5786    0.6984   31.6223 O   0  0  0  0  0  0  0  0  0  0  0  0
   45.1185   -1.1404   25.3065 H   0  0  0  0  0  0  0  0  0  0  0  0
   45.0368    0.1355   27.4001 H   0  0  0  0  0  0  0  0  0  0  0  0
   43.3581   -4.5183   27.3350 H   0  0  0  0  0  0  0  0  0  0  0  0
   43.9021   -5.3976   25.8695 H   0  0  0  0  0  0  0  0  0  0  0  0
   44.1014   -5.5594   24.1882 H   0  0  0  0  0  0  0  0  0  0  0  0
   44.7175   -2.0096   23.8416 H   0  0  0  0  0  0  0  0  0  0  0  0
   44.6837   -3.4586   22.9407 H   0  0  0  0  0  0  0  0  0  0  0  0
   44.2910   -0.0729   30.0011 H   0  0  0  0  0  0  0  0  0  0  0  0
   42.8652   -3.9236   30.1140 H   0  0  0  0  0  0  0  0  0  0  0  0
   43.0512   -3.8191   32.2124 H   0  0  0  0  0  0  0  0  0  0  0  0
   42.6474   -3.5572   34.6089 H   0  0  0  0  0  0  0  0  0  0  0  0
   42.6690   -1.3078   35.6205 H   0  0  0  0  0  0  0  0  0  0  0  0
   43.1022    0.6978   34.2278 H   0  0  0  0  0  0  0  0  0  0  0  0
  1  2  2  0
  2  3  1  0
  3  4  2  0
  4  5  1  0
  1  6  1  0
  5  6  2  0
  1  7  1  0
  7  8  1  0
  7  9  2  0
  4 10  1  0
  5 11  1  0
 10 12  1  0
 11 12  2  0
 12 13  1  0
 13 14  2  0
 14 15  1  0
 15 16  2  0
 16 17  1  0
 13 18  1  0
 17 18  2  0
 18 19  1  0
  2 20  1  0
  3 21  1  0
  6 22  1  0
  8 23  1  0
  8 24  1  0
  9 25  1  0
  9 26  1  0
 10 27  1  0
 11 28  1  0
 14 29  1  0
 15 30  1  0
 16 31  1  0
 17 32  1  0
M  CHG  1   9   1
M  END
$$$$
