3O8G_O8G_A_217_
     RDKit          3D

 22 24  0  0  0  0  0  0  0  0999 V2000
   33.3761   70.5558   10.6847 C   0  0  0  0  0  0  0  0  0  0  0  0
   33.3995   72.0005   10.2449 C   0  0  0  0  0  0  0  0  0  0  0  0
   32.4127   72.8933   10.9609 N   0  0  0  0  0  0  0  0  0  0  0  0
   31.9693   72.5521   12.3961 C   0  0  0  0  0  0  0  0  0  0  0  0
   32.0247   71.0491   12.7393 C   0  0  0  0  0  0  0  0  0  0  0  0
   33.3484   70.4580   12.2413 C   0  0  0  0  0  0  0  0  0  0  0  0
   31.9569   74.0462   10.3957 C   0  0  0  0  0  0  0  0  0  0  0  0
   32.2894   74.4139    9.2565 O   0  0  0  0  0  0  0  0  0  0  0  0
   30.9743   74.9765   11.1463 C   0  0  0  0  0  0  0  0  0  0  0  0
   33.2733   67.9505   11.9714 N   0  0  0  0  0  0  0  0  0  0  0  0
   33.3990   69.0269   12.7305 C   0  0  0  0  0  0  0  0  0  0  0  0
   33.5460   68.6813   14.0460 O   0  0  0  0  0  0  0  0  0  0  0  0
   33.4888   67.3024   14.0546 N   0  0  0  0  0  0  0  0  0  0  0  0
   33.3229   66.8982   12.7926 C   0  0  0  0  0  0  0  0  0  0  0  0
   33.2376   65.5689   12.3938 C   0  0  0  0  0  0  0  0  0  0  0  0
   33.2806   65.0513   11.1659 C   0  0  0  0  0  0  0  0  0  0  0  0
   33.1338   63.7057   11.1477 C   0  0  0  0  0  0  0  0  0  0  0  0
   32.9908   63.0757   12.3296 C   0  0  0  0  0  0  0  0  0  0  0  0
   33.0243   64.3006   13.4977 S   0  0  0  0  0  0  0  0  0  0  0  0
   30.3240   75.8875   10.1567 N   0  0  0  0  0  0  0  0  0  0  0  0
   30.8854   76.8301    9.8753 N   0  0  0  0  0  0  0  0  0  0  0  0
   31.4328   77.7631    9.5697 N   0  0  0  0  0  0  0  0  0  0  0  0
  1  2  1  0
  2  3  1  0
  3  4  1  0
  4  5  1  0
  1  6  1  0
  5  6  1  0
  3  7  1  0
  7  8  2  0
  7  9  1  0
  6 11  1  0
 10 11  2  0
 11 12  1  0
 12 13  1  0
 10 14  1  0
 13 14  2  0
 14 15  1  0
 15 16  2  0
 16 17  1  0
 17 18  2  0
 15 19  1  0
 18 19  1  0
  9 20  1  0
 20 21  2  0
 21 22  2  0
M  CHG  2  21   1  22  -1
M  END
$$$$
