3B27_B2T_A_1_
     RDKit          3D

 16 17  0  0  0  0  0  0  0  0999 V2000
   13.6390    4.6690   12.6910 C   0  0  0  0  0  0  0  0  0  0  0  0
   12.1830    5.4520   11.9770 S   0  0  0  0  0  0  0  0  0  0  0  0
   10.8620    4.5170   12.6220 C   0  0  0  0  0  0  0  0  0  0  0  0
   11.0520    3.2590   13.0550 N   0  0  0  0  0  0  0  0  0  0  0  0
    9.6570    5.0710   12.5410 N   0  0  0  0  0  0  0  0  0  0  0  0
    8.5880    4.3960   12.9960 C   0  0  0  0  0  0  0  0  0  0  0  0
    7.3810    4.9180   12.9250 N   0  0  0  0  0  0  0  0  0  0  0  0
    8.7510    3.1240   13.4250 N   0  0  0  0  0  0  0  0  0  0  0  0
    9.9710    2.5570   13.4650 C   0  0  0  0  0  0  0  0  0  0  0  0
   10.0890    1.2360   13.9260 C   0  0  0  0  0  0  0  0  0  0  0  0
   10.9340    0.9760   15.0050 C   0  0  0  0  0  0  0  0  0  0  0  0
   11.0630   -0.3510   15.4580 C   0  0  0  0  0  0  0  0  0  0  0  0
   10.3470   -1.3750   14.8200 C   0  0  0  0  0  0  0  0  0  0  0  0
    9.5130   -1.1260   13.7380 C   0  0  0  0  0  0  0  0  0  0  0  0
    9.3780    0.1960   13.2900 C   0  0  0  0  0  0  0  0  0  0  0  0
    8.3840    0.4520   11.8910 Cl  0  0  0  0  0  0  0  0  0  0  0  0
  1  2  1  0
  2  3  1  0
  3  4  2  0
  3  5  1  0
  5  6  2  0
  6  7  1  0
  6  8  1  0
  4  9  1  0
  8  9  2  0
  9 10  1  0
 10 11  2  0
 11 12  1  0
 12 13  2  0
 13 14  1  0
 10 15  1  0
 14 15  2  0
 15 16  1  0
M  END
$$$$
