
     RDKit          3D

 34 37  0  0  0  0  0  0  0  0999 V2000
    0.8878    6.1288    1.2229 C   0  0  0  0  0  0  0  0  0  0  0  0
   -6.7413   -3.4467   -0.0890 C   0  0  0  0  0  0  0  0  0  0  0  0
   -5.0975   -3.8354    1.8037 C   0  0  0  0  0  0  0  0  0  0  0  0
    1.2899    4.9838    0.3003 C   0  0  0  0  0  0  0  0  0  0  0  0
    1.2314   -0.7048    0.4054 C   0  0  0  0  0  0  0  0  0  0  0  0
    2.0742    0.7659   -1.3264 C   0  0  0  0  0  0  0  0  0  0  0  0
   -0.0241   -0.0987    0.3094 C   0  0  0  0  0  0  0  0  0  0  0  0
    0.8208    1.3755   -1.4182 C   0  0  0  0  0  0  0  0  0  0  0  0
    4.9305    0.8364    0.8605 C   0  0  0  0  0  0  0  0  0  0  0  0
    5.2572   -1.5025    1.4609 C   0  0  0  0  0  0  0  0  0  0  0  0
    6.4209    0.7512    0.4708 C   0  0  0  0  0  0  0  0  0  0  0  0
    6.5248   -1.5624    0.5741 C   0  0  0  0  0  0  0  0  0  0  0  0
   -4.1396   -0.9777   -0.1241 C   0  0  0  0  0  0  0  0  0  0  0  0
   -2.6926   -2.6896   -1.7870 C   0  0  0  0  0  0  0  0  0  0  0  0
    3.6432   -0.9229   -0.2892 C   0  0  0  0  0  0  0  0  0  0  0  0
   -5.5960   -2.8501    0.7388 C   0  0  0  0  0  0  0  0  0  0  0  0
    2.2886   -0.2786   -0.4135 C   0  0  0  0  0  0  0  0  0  0  0  0
   -0.2358    0.9496   -0.5994 C   0  0  0  0  0  0  0  0  0  0  0  0
   -4.4608   -2.3480   -0.1440 C   0  0  0  0  0  0  0  0  0  0  0  0
   -3.0980   -0.4642   -0.9090 C   0  0  0  0  0  0  0  0  0  0  0  0
   -3.7168   -3.2086   -0.9832 C   0  0  0  0  0  0  0  0  0  0  0  0
   -2.3902   -1.3237   -1.7682 C   0  0  0  0  0  0  0  0  0  0  0  0
   -1.5613    1.5937   -0.7010 C   0  0  0  0  0  0  0  0  0  0  0  0
   -1.8638    2.9490   -0.6928 C   0  0  0  0  0  0  0  0  0  0  0  0
   -2.7982    0.9801   -0.8363 C   0  0  0  0  0  0  0  0  0  0  0  0
   -0.9414    4.0855   -0.5176 C   0  0  0  0  0  0  0  0  0  0  0  0
    0.2513    3.9571    0.2717 N   0  0  0  0  0  0  0  0  0  0  0  0
   -3.1964    3.1037   -0.8198 N   0  0  0  0  0  0  0  0  0  0  0  0
    4.2931   -0.4984    0.9715 N   0  0  0  0  0  0  0  0  0  0  0  0
   -3.9935   -4.5744   -1.0274 O   0  0  0  0  0  0  0  0  0  0  0  0
   -1.4071   -0.8203   -2.6192 O   0  0  0  0  0  0  0  0  0  0  0  0
   -1.2336    5.1933   -1.0429 O   0  0  0  0  0  0  0  0  0  0  0  0
    6.6767   -0.4277   -0.2608 O   0  0  0  0  0  0  0  0  0  0  0  0
   -3.7197    1.9142   -0.8946 O   0  0  0  0  0  0  0  0  0  0  0  0
  1  4  1  0
  2 16  1  0
  3 16  1  0
  4 27  1  0
  5  7  2  0
  5 17  1  0
  6  8  1  0
  6 17  2  0
  7 18  1  0
  8 18  2  0
  9 11  1  0
  9 29  1  0
 10 12  1  0
 10 29  1  0
 11 33  1  0
 12 33  1  0
 13 19  2  0
 13 20  1  0
 14 21  2  0
 14 22  1  0
 15 17  1  0
 15 29  1  0
 16 19  1  0
 18 23  1  0
 19 21  1  0
 20 22  2  0
 20 25  1  0
 21 30  1  0
 22 31  1  0
 23 24  1  0
 23 25  2  0
 24 26  1  0
 24 28  2  0
 25 34  1  0
 26 27  1  0
 26 32  2  0
 28 34  1  0
M  END
$$$$
