
     RDKit          3D

 19 20  0  0  0  0  0  0  0  0999 V2000
    3.7601    0.1449    1.3313 C   0  0  0  0  0  0  0  0  0  0  0  0
    4.1466    0.1589   -1.1255 C   0  0  0  0  0  0  0  0  0  0  0  0
    4.0037   -2.0260    0.1428 C   0  0  0  0  0  0  0  0  0  0  0  0
   -0.8830   -0.7946   -0.8041 C   0  0  0  0  0  0  0  0  0  0  0  0
    0.0225   -1.3690   -1.6885 C   0  0  0  0  0  0  0  0  0  0  0  0
   -3.8411    0.7434    1.7648 C   0  0  0  0  0  0  0  0  0  0  0  0
   -2.8197    1.8539   -0.2343 C   0  0  0  0  0  0  0  0  0  0  0  0
   -5.1360    0.6780    0.9482 C   0  0  0  0  0  0  0  0  0  0  0  0
   -4.1886    1.6998   -0.9028 C   0  0  0  0  0  0  0  0  0  0  0  0
    0.9507   -0.0898    0.6067 C   0  0  0  0  0  0  0  0  0  0  0  0
   -0.4288   -0.1411    0.3455 C   0  0  0  0  0  0  0  0  0  0  0  0
    1.9003   -0.6668   -0.2770 C   0  0  0  0  0  0  0  0  0  0  0  0
    1.4004   -1.3124   -1.4429 C   0  0  0  0  0  0  0  0  0  0  0  0
   -1.3954    0.4601    1.2957 C   0  0  0  0  0  0  0  0  0  0  0  0
    3.4248   -0.5986    0.0124 C   0  0  0  0  0  0  0  0  0  0  0  0
   -2.6980    0.8871    0.8610 N   0  0  0  0  0  0  0  0  0  0  0  0
    2.2619   -1.9040   -2.3654 O   0  0  0  0  0  0  0  0  0  0  0  0
   -1.0791    0.5803    2.5111 O   0  0  0  0  0  0  0  0  0  0  0  0
   -5.2265    1.7742    0.0570 O   0  0  0  0  0  0  0  0  0  0  0  0
  1 15  1  0
  2 15  1  0
  3 15  1  0
  4  5  2  0
  4 11  1  0
  5 13  1  0
  6  8  1  0
  6 16  1  0
  7  9  1  0
  7 16  1  0
  8 19  1  0
  9 19  1  0
 10 11  2  0
 10 12  1  0
 11 14  1  0
 12 13  2  0
 12 15  1  0
 13 17  1  0
 14 16  1  0
 14 18  2  0
M  END
$$$$
