
     RDKit          3D

 33 36  0  0  0  0  0  0  0  0999 V2000
   -6.9615    0.1174   -2.0471 C   0  0  0  0  0  0  0  0  0  0  0  0
   -3.0870    0.8500    3.8771 C   0  0  0  0  0  0  0  0  0  0  0  0
   -6.3097   -1.1153   -2.1395 C   0  0  0  0  0  0  0  0  0  0  0  0
   -6.3472    1.1840   -1.3894 C   0  0  0  0  0  0  0  0  0  0  0  0
   -3.4400   -0.4515    3.5236 C   0  0  0  0  0  0  0  0  0  0  0  0
   -2.7123    1.7622    2.8901 C   0  0  0  0  0  0  0  0  0  0  0  0
    7.4669    1.0051    1.9055 C   0  0  0  0  0  0  0  0  0  0  0  0
    1.8712   -0.7584   -3.6037 C   0  0  0  0  0  0  0  0  0  0  0  0
    6.4119    0.5801    1.0938 C   0  0  0  0  0  0  0  0  0  0  0  0
   -5.0414   -1.2814   -1.5751 C   0  0  0  0  0  0  0  0  0  0  0  0
   -5.0806    1.0232   -0.8212 C   0  0  0  0  0  0  0  0  0  0  0  0
   -3.4127   -0.8468    2.1839 C   0  0  0  0  0  0  0  0  0  0  0  0
   -2.6827    1.3736    1.5472 C   0  0  0  0  0  0  0  0  0  0  0  0
    7.4640    0.7116    3.2725 C   0  0  0  0  0  0  0  0  0  0  0  0
    2.7218   -1.1899   -2.4141 C   0  0  0  0  0  0  0  0  0  0  0  0
    0.4526   -0.6328   -3.0659 C   0  0  0  0  0  0  0  0  0  0  0  0
    5.3433   -0.4347    3.0230 C   0  0  0  0  0  0  0  0  0  0  0  0
    4.2037   -0.5881    0.7700 C   0  0  0  0  0  0  0  0  0  0  0  0
    5.3393   -0.1409    1.6477 C   0  0  0  0  0  0  0  0  0  0  0  0
   -4.4141   -0.2174   -0.8978 C   0  0  0  0  0  0  0  0  0  0  0  0
   -3.0164    0.0534    1.1743 C   0  0  0  0  0  0  0  0  0  0  0  0
    6.4050   -0.0108    3.8315 C   0  0  0  0  0  0  0  0  0  0  0  0
    1.9584   -0.7299   -1.1709 C   0  0  1  0  0  0  0  0  0  0  0  0
   -3.0390   -0.4235   -0.2799 C   0  0  0  0  0  0  0  0  0  0  0  0
   -1.8923    0.0733   -1.2200 C   0  0  2  0  0  0  0  0  0  0  0  0
    2.5325    0.5617   -0.6241 C   0  0  0  0  0  0  0  0  0  0  0  0
   -0.5078   -0.2967   -0.7107 C   0  0  0  0  0  0  0  0  0  0  0  0
    6.4041   -0.3800    5.5462 Cl  0  0  0  0  0  0  0  0  0  0  0  0
   -1.9680    1.5146   -1.4773 N   0  0  0  0  0  0  0  0  0  0  0  0
    3.5170    0.5830    0.2281 N   0  0  0  0  0  0  0  0  0  0  0  0
    0.5880   -0.5215   -1.6215 N   0  0  0  0  0  0  0  0  0  0  0  0
    2.0085    1.7734   -1.0738 O   0  0  0  0  0  0  0  0  0  0  0  0
   -0.2873   -0.3412    0.5316 O   0  0  0  0  0  0  0  0  0  0  0  0
  1  3  2  0
  1  4  1  0
  2  5  2  0
  2  6  1  0
  3 10  1  0
  4 11  2  0
  5 12  1  0
  6 13  2  0
  7  9  2  0
  7 14  1  0
  8 15  1  0
  8 16  1  0
  9 19  1  0
 10 20  2  0
 11 20  1  0
 12 21  2  0
 13 21  1  0
 14 22  2  0
 23 15  1  6
 16 31  1  0
 17 19  2  0
 17 22  1  0
 18 19  1  0
 18 30  1  0
 20 24  1  0
 21 24  1  0
 22 28  1  0
 23 26  1  0
 23 31  1  0
 24 25  1  0
 25 27  1  0
 25 29  1  1
 26 30  2  3
 26 32  1  0
 27 31  1  0
 27 33  2  0
M  END
$$$$
