4A23_C56_B_1544_AA
     RDKit          3D

 19 19  0  0  0  0  0  0  0  0999 V2000
    9.7120   -5.4238  -35.8385 O   0  0  0  0  0  0  0  0  0  0  0  0
    9.6674   -6.5955  -36.1928 C   0  0  0  0  0  0  0  0  0  0  0  0
   10.9133   -7.4355  -36.0228 C   0  0  0  0  0  0  0  0  0  0  0  0
   11.1070   -8.6695  -36.6410 C   0  0  0  0  0  0  0  0  0  0  0  0
   10.1523   -9.2041  -37.4602 O   0  0  0  0  0  0  0  0  0  0  0  0
   10.4835  -10.3428  -38.2576 C   0  0  0  0  0  0  0  0  0  0  0  0
   12.2764   -9.4048  -36.4431 C   0  0  0  0  0  0  0  0  0  0  0  0
   13.2923   -8.9140  -35.6359 C   0  0  0  0  0  0  0  0  0  0  0  0
   14.4480   -9.7114  -35.4589 N   0  0  0  0  0  0  0  0  0  0  0  0
   15.4402   -9.5093  -34.4133 C   0  0  0  0  0  0  0  0  0  0  0  0
   14.7840  -10.8231  -36.3414 C   0  0  0  0  0  0  0  0  0  0  0  0
   13.0826   -7.6850  -35.0137 C   0  0  0  0  0  0  0  0  0  0  0  0
   14.0080   -7.0955  -34.1656 N   0  0  0  0  0  0  0  0  0  0  0  0
   15.1217   -6.8250  -34.5842 O   0  0  0  0  0  0  0  0  0  0  0  0
   13.5460   -6.8278  -32.8720 O   0  0  0  0  0  0  0  0  0  0  0  0
   11.9172   -6.9527  -35.2046 C   0  0  0  0  0  0  0  0  0  0  0  0
    8.5468   -7.1195  -36.7070 N   0  0  0  0  0  0  0  0  0  0  0  0
    7.2191   -6.5383  -36.5096 C   0  0  0  0  0  0  0  0  0  0  0  0
    6.9543   -5.3178  -37.3914 C   0  0  0  0  0  0  0  0  0  0  0  0
  1  2  2  0
  2  3  1  0
  3  4  2  0
  4  5  1  0
  5  6  1  0
  4  7  1  0
  7  8  2  0
  8  9  1  0
  9 10  1  0
  9 11  1  0
  8 12  1  0
 12 13  1  0
 13 14  1  0
 13 15  2  0
  3 16  1  0
 12 16  2  0
  2 17  1  0
 17 18  1  0
 18 19  1  0
M  CHG  2  13   1  14  -1
M  END
$$$$
