
     RDKit          3D

 16 16  0  0  0  0  0  0  0  0999 V2000
   -5.5436   -0.2930   -0.3095 C   0  0  0  0  0  0  0  0  0  0  0  0
   -4.0905   -0.2105    0.1482 C   0  0  0  0  0  0  0  0  0  0  0  0
    1.1141    1.0519   -0.1136 C   0  0  0  0  0  0  0  0  0  0  0  0
    1.2534   -1.3383    0.2549 C   0  0  0  0  0  0  0  0  0  0  0  0
    2.4556    1.1846    0.2572 C   0  0  0  0  0  0  0  0  0  0  0  0
    2.5941   -1.2022    0.6262 C   0  0  0  0  0  0  0  0  0  0  0  0
   -3.2465    0.6079   -0.8335 C   0  0  0  0  0  0  0  0  0  0  0  0
    0.4940   -0.2113   -0.1080 C   0  0  0  0  0  0  0  0  0  0  0  0
    3.1982    0.0605    0.6378 C   0  0  0  0  0  0  0  0  0  0  0  0
   -0.9260   -0.3728   -0.5040 C   0  0  0  0  0  0  0  0  0  0  0  0
    5.8850    0.0684   -0.3186 N   0  0  0  0  0  0  0  0  0  0  0  0
   -1.8663    0.7058   -0.3624 N   0  0  0  0  0  0  0  0  0  0  0  0
   -1.3152   -1.4825   -0.9611 O   0  0  0  0  0  0  0  0  0  0  0  0
    5.2618   -0.8335    2.0851 O   0  0  0  0  0  0  0  0  0  0  0  0
    5.1221    1.5759    1.7123 O   0  0  0  0  0  0  0  0  0  0  0  0
    4.8925    0.2283    1.0874 S   0  0  0  0  0  6  0  0  0  0  0  0
  1  2  1  0
  2  7  1  0
  3  5  2  0
  3  8  1  0
  4  6  1  0
  4  8  2  0
  5  9  1  0
  6  9  2  0
  7 12  1  0
  8 10  1  0
  9 16  1  0
 10 12  1  0
 10 13  2  0
 11 16  1  0
 14 16  2  0
 15 16  2  0
M  END
$$$$
