
     RDKit          3D

 17 18  0  0  0  0  0  0  0  0999 V2000
   -3.3546    0.2840    1.0438 C   0  0  0  0  0  0  0  0  0  0  0  0
   -3.5199    1.0888   -1.3326 C   0  0  0  0  0  0  0  0  0  0  0  0
   -0.4557   -2.0752   -1.6784 C   0  0  0  0  0  0  0  0  0  0  0  0
    1.0919    1.8046    1.1797 C   0  0  0  0  0  0  0  0  0  0  0  0
   -0.1457    1.3907    0.6986 C   0  0  0  0  0  0  0  0  0  0  0  0
    0.7892   -1.6756   -1.1952 C   0  0  0  0  0  0  0  0  0  0  0  0
   -1.5985   -1.3442   -1.3701 C   0  0  0  0  0  0  0  0  0  0  0  0
    2.2404    1.0730    0.8920 C   0  0  0  0  0  0  0  0  0  0  0  0
   -0.2561    0.2261   -0.0812 C   0  0  0  0  0  0  0  0  0  0  0  0
    0.9170   -0.5227   -0.3912 C   0  0  0  0  0  0  0  0  0  0  0  0
   -1.5147   -0.1979   -0.5711 C   0  0  0  0  0  0  0  0  0  0  0  0
    2.1777   -0.0907    0.1092 C   0  0  0  0  0  0  0  0  0  0  0  0
    5.0600   -0.2411    0.5176 N   0  0  0  0  0  0  0  0  0  0  0  0
   -2.7174    0.5216   -0.2504 N   0  0  0  0  0  0  0  0  0  0  0  0
    3.9122   -1.0181   -1.7116 O   0  0  0  0  0  0  0  0  0  0  0  0
    3.5569   -2.3811    0.2990 O   0  0  0  0  0  0  0  0  0  0  0  0
    3.6818   -0.9786   -0.2269 S   0  0  0  0  0  6  0  0  0  0  0  0
  1 14  1  0
  2 14  1  0
  3  6  2  0
  3  7  1  0
  4  5  2  0
  4  8  1  0
  5  9  1  0
  6 10  1  0
  7 11  2  0
  8 12  2  0
  9 10  2  0
  9 11  1  0
 10 12  1  0
 11 14  1  0
 12 17  1  0
 13 17  1  0
 15 17  2  0
 16 17  2  0
M  END
$$$$
