1OKL_MNS_A_862_
     RDKit          3D

 17 18  0  0  0  0  0  0  0  0999 V2000
   -5.2393    2.3237   15.4146 C   0  0  0  0  0  0  0  0  0  0  0  0
   -4.5258    1.8369   14.3015 C   0  0  0  0  0  0  0  0  0  0  0  0
   -4.0674    2.7474   13.3542 C   0  0  0  0  0  0  0  0  0  0  0  0
   -4.3144    4.1176   13.5091 C   0  0  0  0  0  0  0  0  0  0  0  0
   -5.0223    4.6773   14.5982 C   0  0  0  0  0  0  0  0  0  0  0  0
   -5.2844    6.0775   14.7741 C   0  0  0  0  0  0  0  0  0  0  0  0
   -6.0035    6.4963   15.9094 C   0  0  0  0  0  0  0  0  0  0  0  0
   -6.4708    5.5858   16.8717 C   0  0  0  0  0  0  0  0  0  0  0  0
   -6.2079    4.2156   16.6897 C   0  0  0  0  0  0  0  0  0  0  0  0
   -5.4905    3.7359   15.5695 C   0  0  0  0  0  0  0  0  0  0  0  0
   -4.7807    7.0760   13.7305 N   0  0  0  0  0  0  0  0  0  0  0  0
   -3.5748    7.1771   13.8015 C   0  0  0  0  0  0  0  0  0  0  0  0
   -5.4717    6.9295   12.5995 C   0  0  0  0  0  0  0  0  0  0  0  0
   -5.8230    1.2410   16.6067 S   0  0  0  0  0  0  0  0  0  0  0  0
   -7.3121    1.3530   16.6826 O   0  0  0  0  0  0  0  0  0  0  0  0
   -5.2100    1.5896   17.9267 O   0  0  0  0  0  0  0  0  0  0  0  0
   -5.4447   -0.1570   16.2343 N   0  0  0  0  0  0  0  0  0  0  0  0
  1  2  2  0
  2  3  1  0
  3  4  2  0
  4  5  1  0
  5  6  1  0
  6  7  2  0
  7  8  1  0
  8  9  2  0
  1 10  1  0
  5 10  2  0
  9 10  1  0
  6 11  1  0
 11 12  1  0
 11 13  1  0
  1 14  1  0
 14 15  2  0
 14 16  2  0
 14 17  1  0
M  END
$$$$
