3VP4_BP9_A_601_
     RDKit          3D

  8  8  0  0  0  0  0  0  0  0999 V2000
   -2.5894   -8.2334   46.0116 N   0  0  0  0  0  0  0  0  0  0  0  0
   -3.9266   -7.0522   42.7167 N   0  0  0  0  0  0  0  0  0  0  0  0
   -3.4103   -7.4499   45.2833 N   0  0  0  0  0  0  0  0  0  0  0  0
   -0.9020   -9.9088   46.0729 C   0  0  0  0  0  0  0  0  0  0  0  0
   -3.3205   -7.6046   43.8570 C   0  0  0  0  0  0  0  0  0  0  0  0
    0.4505   -9.2027   46.1278 C   0  0  0  0  0  0  0  0  0  0  0  0
   -1.7934   -9.0626   45.2136 C   0  0  0  0  0  0  0  0  0  0  0  0
   -2.1275   -8.8035   43.6575 S   0  0  0  0  0  0  0  0  0  0  0  0
  1  3  1  0
  2  5  1  0
  3  5  2  0
  4  6  1  0
  4  7  1  0
  1  7  2  0
  5  8  1  0
  7  8  1  0
M  END
$$$$
