3GEV_SAQ_A_400_
     RDKit          3D

 16 18  0  0  0  0  0  0  0  0999 V2000
   17.1684   17.0535   23.8490 N   0  0  0  0  0  0  0  0  0  0  0  0
   15.9112   16.7665   23.4109 C   0  0  0  0  0  0  0  0  0  0  0  0
   15.6778   16.5917   22.0843 N   0  0  0  0  0  0  0  0  0  0  0  0
   16.6654   16.9068   21.1367 C   0  0  0  0  0  0  0  0  0  0  0  0
   17.9274   17.3379   21.5531 C   0  0  0  0  0  0  0  0  0  0  0  0
   18.2189   17.3466   23.0008 C   0  0  0  0  0  0  0  0  0  0  0  0
   18.9498   17.6520   20.6316 C   0  0  0  0  0  0  0  0  0  0  0  0
   18.5742   17.5788   19.2857 C   0  0  0  0  0  0  0  0  0  0  0  0
   17.3101   17.1986   18.8430 C   0  0  0  0  0  0  0  0  0  0  0  0
   16.3159   16.8321   19.7679 C   0  0  0  0  0  0  0  0  0  0  0  0
   19.2774   17.7834   18.1259 N   0  0  0  0  0  0  0  0  0  0  0  0
   18.4231   17.6206   17.0666 C   0  0  0  0  0  0  0  0  0  0  0  0
   17.2381   17.2423   17.4724 N   0  0  0  0  0  0  0  0  0  0  0  0
   18.9389   17.8174   15.8186 N   0  0  0  0  0  0  0  0  0  0  0  0
   19.2651   17.7471   23.5051 O   0  0  0  0  0  0  0  0  0  0  0  0
   18.1883   17.7112   14.5937 C   0  0  0  0  0  0  0  0  0  0  0  0
  1  2  2  0
  1  6  1  0
  2  3  1  0
  3  4  2  0
  4  5  1  0
  4 10  1  0
  5  6  1  0
  5  7  2  0
  6 15  2  0
  7  8  1  0
  8  9  1  0
  8 11  2  0
  9 13  1  0
  9 10  2  0
 11 12  1  0
 12 13  2  0
 12 14  1  0
 14 16  1  0
M  END
$$$$
