
     RDKit          3D

 23 25  0  0  0  0  0  0  0  0999 V2000
    7.0099    0.1035    0.2647 C   0  0  0  0  0  0  0  0  0  0  0  0
    6.5728    0.4558    1.5449 C   0  0  0  0  0  0  0  0  0  0  0  0
    6.1001    0.0540   -0.7952 C   0  0  0  0  0  0  0  0  0  0  0  0
    5.2235    0.7482    1.7687 C   0  0  0  0  0  0  0  0  0  0  0  0
    4.7505    0.3458   -0.5739 C   0  0  0  0  0  0  0  0  0  0  0  0
   -5.4375    0.1663    0.5236 C   0  0  0  0  0  0  0  0  0  0  0  0
   -4.3744   -0.4362   -1.5671 C   0  0  0  0  0  0  0  0  0  0  0  0
   -4.2014    0.5741    1.0331 C   0  0  0  0  0  0  0  0  0  0  0  0
   -3.1388   -0.0288   -1.0555 C   0  0  0  0  0  0  0  0  0  0  0  0
    1.9139   -0.9142    0.0361 C   0  0  0  0  0  0  0  0  0  0  0  0
    0.7215   -1.5538   -0.2917 C   0  0  0  0  0  0  0  0  0  0  0  0
   -5.5359   -0.3476   -0.7814 C   0  0  0  0  0  0  0  0  0  0  0  0
    4.2992    0.6661    0.7190 C   0  0  0  0  0  0  0  0  0  0  0  0
   -3.0394    0.4618    0.2575 C   0  0  0  0  0  0  0  0  0  0  0  0
    1.8576    0.3690    0.6123 C   0  0  0  0  0  0  0  0  0  0  0  0
   -6.8416   -0.7807   -1.3262 C   0  0  0  0  0  0  0  0  0  0  0  0
   -0.5183    0.2938    0.5121 C   0  0  0  0  0  0  0  0  0  0  0  0
   -0.4645   -0.9444   -0.0478 N   0  0  0  0  0  0  0  0  0  0  0  0
    2.9303    1.0266    0.9622 N   0  0  0  0  0  0  0  0  0  0  0  0
   -1.7845    0.9105    0.7969 N   0  0  0  0  0  0  0  0  0  0  0  0
    0.6381    0.9298    0.8537 N   0  0  0  0  0  0  0  0  0  0  0  0
   -6.9293   -1.2854   -2.6211 O   0  0  0  0  0  0  0  0  0  0  0  0
   -7.8858   -0.6976   -0.6244 O   0  0  0  0  0  0  0  0  0  0  0  0
  1  2  2  0
  1  3  1  0
  2  4  1  0
  3  5  2  0
  4 13  2  0
  5 13  1  0
  6  8  2  0
  6 12  1  0
  7  9  1  0
  7 12  2  0
  8 14  1  0
  9 14  2  0
 10 11  2  0
 10 15  1  0
 11 18  1  0
 12 16  1  0
 13 19  1  0
 14 20  1  0
 15 19  2  3
 15 21  1  0
 16 22  1  0
 16 23  2  0
 17 18  2  0
 17 20  1  0
 17 21  1  0
M  END
$$$$
