3OZR_OZR_A_224_
     RDKit          3D

 24 25  0  0  0  0  0  0  0  0999 V2000
  -20.2619   30.4177   13.2308 C   0  0  0  0  0  0  0  0  0  0  0  0
  -21.0978   31.2637   14.2394 C   0  0  0  0  0  0  0  0  0  0  0  0
  -21.9775   32.0725   13.2694 C   0  0  0  0  0  0  0  0  0  0  0  0
  -21.1677   32.3134   12.0950 O   0  0  0  0  0  0  0  0  0  0  0  0
  -19.9781   31.4795   12.1268 C   0  0  0  0  0  0  0  0  0  0  0  0
  -19.7089   30.7859   10.8286 C   0  0  0  0  0  0  0  0  0  0  0  0
  -19.0218   29.8152   13.6206 O   0  0  0  0  0  0  0  0  0  0  0  0
  -20.2309   32.1381   14.9382 O   0  0  0  0  0  0  0  0  0  0  0  0
  -20.6348   30.6120    9.8849 C   0  0  0  0  0  0  0  0  0  0  0  0
  -20.3355   29.9094    8.6096 C   0  0  0  0  0  0  0  0  0  0  0  0
  -21.4520   29.1585    8.1010 N   0  0  0  0  0  0  0  0  0  0  0  0
  -22.2727   29.7124    7.1766 C   0  0  0  0  0  0  0  0  0  0  0  0
  -23.3857   28.9248    6.5782 C   0  0  0  0  0  0  0  0  0  0  0  0
  -23.4440   27.5224    6.7736 C   0  0  0  0  0  0  0  0  0  0  0  0
  -24.5096   26.8070    6.2235 C   0  0  0  0  0  0  0  0  0  0  0  0
  -25.5012   27.4298    5.4584 C   0  0  0  0  0  0  0  0  0  0  0  0
  -25.4159   28.8292    5.2849 C   0  0  0  0  0  0  0  0  0  0  0  0
  -24.3892   29.5678    5.8430 C   0  0  0  0  0  0  0  0  0  0  0  0
  -26.4079   29.6090    4.5286 N   0  0  0  0  0  0  0  0  0  0  0  0
  -22.5121   26.8113    7.4537 O   0  0  0  0  0  0  0  0  0  0  0  0
  -24.6059   25.4414    6.3689 O   0  0  0  0  0  0  0  0  0  0  0  0
  -22.1219   30.9063    6.8402 O   0  0  0  0  0  0  0  0  0  0  0  0
  -27.2522   29.0717    3.8462 O   0  0  0  0  0  0  0  0  0  0  0  0
  -26.3052   30.7984    4.6385 O   0  0  0  0  0  0  0  0  0  0  0  0
  1  2  1  0
  2  3  1  0
  3  4  1  0
  1  5  1  0
  4  5  1  0
  5  6  1  0
  1  7  1  0
  2  8  1  0
  6  9  2  3
  9 10  1  0
 10 11  1  0
 11 12  1  0
 12 13  1  0
 13 14  2  0
 14 15  1  0
 15 16  2  0
 16 17  1  0
 13 18  1  0
 17 18  2  0
 17 19  1  0
 14 20  1  0
 15 21  1  0
 12 22  2  0
 19 23  2  0
 19 24  1  0
M  CHG  2  19   1  24  -1
M  END
$$$$
