
     RDKit          3D

 24 25  0  0  0  0  0  0  0  0999 V2000
   -1.4159    1.1507   -0.5177 C   0  0  0  0  0  0  0  0  0  0  0  0
   -2.6676    1.4082   -0.9253 C   0  0  0  0  0  0  0  0  0  0  0  0
   -0.3385    2.1928   -0.6328 C   0  0  0  0  0  0  0  0  0  0  0  0
    3.2348   -1.0361   -0.1114 C   0  0  0  0  0  0  0  0  0  0  0  0
    5.2194   -0.6474    1.2161 C   0  0  0  0  0  0  0  0  0  0  0  0
   -3.6517   -1.8976   -0.6111 C   0  0  0  0  0  0  0  0  0  0  0  0
    4.3731   -1.5394    0.5413 C   0  0  0  0  0  0  0  0  0  0  0  0
    2.9358    0.3368   -0.0935 C   0  0  0  0  0  0  0  0  0  0  0  0
    4.9499    0.7261    1.2211 C   0  0  0  0  0  0  0  0  0  0  0  0
   -4.5191   -1.4029    0.5412 C   0  0  1  0  0  0  0  0  0  0  0  0
   -3.7631    0.3751   -0.8440 C   0  0  2  0  0  0  0  0  0  0  0  0
    3.8246    1.2290    0.5550 C   0  0  0  0  0  0  0  0  0  0  0  0
   -4.1611    0.0633    0.6028 C   0  0  1  0  0  0  0  0  0  0  0  0
    1.6811    0.7853   -0.7333 C   0  0  0  0  0  0  0  0  0  0  0  0
    0.9368    1.6764   -0.1411 N   0  0  0  0  0  0  0  0  0  0  0  0
    4.6632   -2.9498    0.5303 N   0  0  0  0  0  4  0  0  0  0  0  0
    5.8089    1.6058    1.8786 O   0  0  0  0  0  0  0  0  0  0  0  0
   -5.8887   -1.6183    0.2866 O   0  0  0  0  0  0  0  0  0  0  0  0
    3.6425    2.6143    0.5291 O   0  0  0  0  0  0  0  0  0  0  0  0
   -5.2034    0.8763    1.0911 O   0  0  0  0  0  0  0  0  0  0  0  0
    1.3016    0.1985   -1.9450 O   0  0  0  0  0  0  0  0  0  0  0  0
    5.7691   -3.4416    1.1852 O   0  0  0  0  0  1  0  0  0  0  0  0
    3.9189   -3.7492   -0.0748 O   0  0  0  0  0  0  0  0  0  0  0  0
   -3.3555   -0.8211   -1.4766 O   0  0  0  0  0  0  0  0  0  0  0  0
  1  2  2  0
  1  3  1  0
 11  2  1  1
  3 15  1  0
  4  7  2  0
  4  8  1  0
  5  7  1  0
  5  9  2  0
  6 10  1  0
  6 24  1  0
  7 16  1  0
  8 12  2  0
  8 14  1  0
  9 12  1  0
  9 17  1  0
 10 13  1  0
 10 18  1  6
 11 13  1  0
 11 24  1  0
 12 19  1  0
 13 20  1  6
 14 15  2  3
 14 21  1  0
 16 22  1  0
 16 23  2  0
M  CHG  2  16   1  22  -1
M  END
$$$$
