
     RDKit          3D

 22 24  0  0  0  0  0  0  0  0999 V2000
    5.7897    1.0229   -1.2249 C   0  0  0  0  0  0  0  0  0  0  0  0
    4.2902    1.1290   -1.4488 C   0  0  0  0  0  0  0  0  0  0  0  0
   -0.5636    1.4955    0.9097 C   0  0  0  0  0  0  0  0  0  0  0  0
   -1.9730    2.0504    1.1287 C   0  0  0  0  0  0  0  0  0  0  0  0
   -3.8755    0.6734   -1.7062 C   0  0  0  0  0  0  0  0  0  0  0  0
    2.3931   -1.9944    0.8158 C   0  0  0  0  0  0  0  0  0  0  0  0
   -1.5066   -2.1707    2.0224 C   0  0  0  0  0  0  0  0  0  0  0  0
   -1.5985    0.0092   -0.8432 C   0  0  0  0  0  0  0  0  0  0  0  0
   -2.9359    0.6845   -0.4875 C   0  0  1  0  0  0  0  0  0  0  0  0
   -0.2701   -1.9043    1.4713 C   0  0  0  0  0  0  0  0  0  0  0  0
    1.5939   -0.9318    0.3043 C   0  0  0  0  0  0  0  0  0  0  0  0
    0.2133   -0.8841    0.6564 C   0  0  0  0  0  0  0  0  0  0  0  0
    0.5370   -2.8970    1.9212 C   0  0  0  0  0  0  0  0  0  0  0  0
    2.2225    0.0683   -0.5903 C   0  0  0  0  0  0  0  0  0  0  0  0
   -5.1992    1.1987   -1.3742 N   0  0  0  0  0  0  0  0  0  0  0  0
    1.8535   -2.9617    1.6169 N   0  0  0  0  0  0  0  0  0  0  0  0
   -1.4054   -3.2990    2.7699 N   0  0  0  0  0  0  0  0  0  0  0  0
   -0.1525   -3.7376    2.7033 N   0  0  0  0  0  0  0  0  0  0  0  0
   -0.6560    0.1871    0.2617 N   0  0  0  0  0  0  0  0  0  0  0  0
    1.5153    0.7825   -1.3526 O   0  0  0  0  0  0  0  0  0  0  0  0
    3.6155    0.1981   -0.6091 O   0  0  0  0  0  0  0  0  0  0  0  0
   -2.7141    2.0249   -0.0779 O   0  0  0  0  0  0  0  0  0  0  0  0
  1  2  1  0
  2 21  1  0
  3  4  1  0
  3 19  1  0
  4 22  1  0
  9  5  1  6
  5 15  1  0
  6 11  2  0
  6 16  1  0
  7 10  1  0
  7 17  2  0
  8  9  1  0
  8 19  1  0
  9 22  1  0
 10 12  2  0
 10 13  1  0
 11 12  1  0
 11 14  1  0
 12 19  1  0
 13 16  2  0
 13 18  1  0
 14 20  2  0
 14 21  1  0
 17 18  1  0
M  END
$$$$
