2YM3_YM3_A_1271_
     RDKit          3D

 22 24  0  0  0  0  0  0  0  0999 V2000
   22.0746    0.5028    7.5162 C   0  0  0  0  0  0  0  0  0  0  0  0
   21.3332   -0.4765    8.3843 C   0  0  0  0  0  0  0  0  0  0  0  0
   19.0802   -0.8578    9.0513 C   0  0  0  0  0  0  0  0  0  0  0  0
   17.6999   -0.2596    9.2228 C   0  0  0  0  0  0  0  0  0  0  0  0
   17.4092    0.9431    8.5900 C   0  0  0  0  0  0  0  0  0  0  0  0
   16.1946    1.5095    8.7099 N   0  0  0  0  0  0  0  0  0  0  0  0
   15.2027    0.9066    9.4639 C   0  0  0  0  0  0  0  0  0  0  0  0
   13.9106    1.3133    9.7141 N   0  0  0  0  0  0  0  0  0  0  0  0
   13.3152    0.3773   10.5207 N   0  0  0  0  0  0  0  0  0  0  0  0
   14.2109   -0.5985   10.7797 C   0  0  0  0  0  0  0  0  0  0  0  0
   15.4315   -0.2878   10.1159 C   0  0  0  0  0  0  0  0  0  0  0  0
   16.6940   -0.8965   10.0048 C   0  0  0  0  0  0  0  0  0  0  0  0
   16.9514   -2.1740   10.6937 N   0  0  0  0  0  0  0  0  0  0  0  0
   17.6449   -2.2379   11.9155 C   0  0  0  0  0  0  0  0  0  0  0  0
   15.9350   -3.1436   10.5956 C   0  0  0  0  0  0  0  0  0  0  0  0
   16.4217   -4.5183   10.9017 C   0  0  0  0  0  0  0  0  0  0  0  0
   17.0992   -4.5861   12.1256 O   0  0  0  0  0  0  0  0  0  0  0  0
   18.1038   -3.6145   12.2747 C   0  0  0  0  0  0  0  0  0  0  0  0
   19.3393   -3.9928   11.4687 C   0  0  0  0  0  0  0  0  0  0  0  0
   20.0273   -5.1785   11.8482 N   0  0  0  0  0  0  0  0  0  0  0  0
   20.1995   -0.0327    9.0170 O   0  0  0  0  0  0  0  0  0  0  0  0
   19.2164   -2.0635    8.9166 O   0  0  0  0  0  0  0  0  0  0  0  0
  1  2  1  0
  3  4  1  0
  4  5  2  0
  5  6  1  0
  6  7  2  0
  7  8  1  0
  8  9  1  0
  9 10  2  0
  7 11  1  0
 10 11  1  0
  4 12  1  0
 11 12  2  0
 12 13  1  0
 13 14  1  0
 13 15  1  0
 15 16  1  0
 16 17  1  0
 14 18  1  0
 17 18  1  0
 18 19  1  0
 19 20  1  0
  2 21  1  0
  3 21  1  0
  3 22  2  0
M  END
$$$$
