
     RDKit          3D

 14 15  0  0  0  0  0  0  0  0999 V2000
   -0.1253   -1.3896    1.1745 C   0  0  0  0  0  0  0  0  0  0  0  0
    1.2078   -1.4342    0.7601 C   0  0  0  0  0  0  0  0  0  0  0  0
   -2.4316   -0.3903    1.1160 C   0  0  0  0  0  0  0  0  0  0  0  0
   -3.3235    0.4245    0.1764 C   0  0  0  0  0  0  0  0  0  0  0  0
    0.7994    0.4030   -0.7638 C   0  0  0  0  0  0  0  0  0  0  0  0
   -1.4808    1.4499   -0.9903 C   0  0  0  0  0  0  0  0  0  0  0  0
   -1.0110   -0.4566    0.6161 C   0  0  0  0  0  0  0  0  0  0  0  0
   -0.5375    0.4656   -0.3416 C   0  0  0  0  0  0  0  0  0  0  0  0
    1.6732   -0.5456   -0.2165 C   0  0  0  0  0  0  0  0  0  0  0  0
    4.3014    0.4306    0.2817 N   0  0  0  0  0  0  0  0  0  0  0  0
   -2.6663    1.6924   -0.1570 N   0  0  0  0  0  0  0  0  0  0  0  0
    3.8698   -2.0112   -0.6389 O   0  0  0  0  0  0  0  0  0  0  0  0
    3.4665   -0.1416   -2.1587 O   0  0  0  0  0  0  0  0  0  0  0  0
    3.3556   -0.6016   -0.7321 S   0  0  0  0  0  6  0  0  0  0  0  0
  1  2  2  0
  1  7  1  0
  2  9  1  0
  3  4  1  0
  3  7  1  0
  4 11  1  0
  5  8  1  0
  5  9  2  0
  6  8  1  0
  6 11  1  0
  7  8  2  0
  9 14  1  0
 10 14  1  0
 12 14  2  0
 13 14  2  0
M  END
$$$$
