2OJG_19A_A_360_
     RDKit          3D

 21 23  0  0  0  0  0  0  0  0999 V2000
  -10.0278   13.2034   40.5689 C   0  0  0  0  0  0  0  0  0  0  0  0
  -11.4950   13.0604   40.5168 N   0  0  0  0  0  0  0  0  0  0  0  0
  -12.2951   14.0489   41.2498 C   0  0  0  0  0  0  0  0  0  0  0  0
  -12.0555   12.0045   39.7832 C   0  0  0  0  0  0  0  0  0  0  0  0
  -11.2952   11.2435   39.1991 O   0  0  0  0  0  0  0  0  0  0  0  0
  -13.5461   11.7204   39.6541 C   0  0  0  0  0  0  0  0  0  0  0  0
  -14.5760   12.1388   40.4739 C   0  0  0  0  0  0  0  0  0  0  0  0
  -15.7925   11.6358   39.9907 C   0  0  0  0  0  0  0  0  0  0  0  0
  -15.4831   10.9020   38.8674 C   0  0  0  0  0  0  0  0  0  0  0  0
  -14.1355   10.9518   38.6675 N   0  0  0  0  0  0  0  0  0  0  0  0
  -17.1707   11.8444   40.5907 C   0  0  0  0  0  0  0  0  0  0  0  0
  -18.1355   10.9348   40.5529 N   0  0  0  0  0  0  0  0  0  0  0  0
  -19.2624   11.4350   41.1967 N   0  0  0  0  0  0  0  0  0  0  0  0
  -18.9988   12.6671   41.6426 C   0  0  0  0  0  0  0  0  0  0  0  0
  -17.7038   12.9874   41.3003 C   0  0  0  0  0  0  0  0  0  0  0  0
  -17.0390   14.2967   41.6393 C   0  0  0  0  0  0  0  0  0  0  0  0
  -16.3410   15.0831   40.6712 C   0  0  0  0  0  0  0  0  0  0  0  0
  -15.7397   16.3047   41.0459 C   0  0  0  0  0  0  0  0  0  0  0  0
  -15.8403   16.7509   42.3824 C   0  0  0  0  0  0  0  0  0  0  0  0
  -16.5332   15.9765   43.3542 C   0  0  0  0  0  0  0  0  0  0  0  0
  -17.1274   14.7661   42.9881 C   0  0  0  0  0  0  0  0  0  0  0  0
  1  2  1  0
  2  3  1  0
  2  4  1  0
  4  5  2  0
  4  6  1  0
  6  7  2  0
  7  8  1  0
  8  9  2  0
  6 10  1  0
  9 10  1  0
  8 11  1  0
 11 12  2  0
 12 13  1  0
 13 14  1  0
 11 15  1  0
 14 15  2  0
 15 16  1  0
 16 17  2  0
 17 18  1  0
 18 19  2  0
 19 20  1  0
 16 21  1  0
 20 21  2  0
M  END
$$$$
