3NRM_NRM_A_1_
     RDKit          3D

 21 24  0  0  0  0  0  0  0  0999 V2000
    7.4187   30.0906    8.7691 C   0  0  0  0  0  0  0  0  0  0  0  0
    3.7429   34.2296    6.0058 N   0  0  0  0  0  0  0  0  0  0  0  0
    3.5677   34.3664    3.2098 S   0  0  0  0  0  0  0  0  0  0  0  0
    6.5376   31.1505    5.9238 C   0  0  0  0  0  0  0  0  0  0  0  0
    4.8544   32.8927    8.5227 N   0  0  0  0  0  0  0  0  0  0  0  0
    6.0900   31.7138    4.7150 C   0  0  0  0  0  0  0  0  0  0  0  0
    6.0637   31.6218    7.1186 N   0  0  0  0  0  0  0  0  0  0  0  0
    8.4829   28.3956    9.7552 N   0  0  0  0  0  0  0  0  0  0  0  0
    4.6581   33.1925    6.0035 C   0  0  0  0  0  0  0  0  0  0  0  0
    9.3065   28.8914    8.8167 N   0  0  0  0  0  0  0  0  0  0  0  0
    5.1411   32.6115    7.1923 C   0  0  0  0  0  0  0  0  0  0  0  0
    2.7402   35.5103    2.5360 N   0  0  0  0  0  0  0  0  0  0  0  0
    6.4088   31.1563    8.3779 C   0  0  0  0  0  0  0  0  0  0  0  0
    5.1713   32.7064    4.7928 N   0  0  0  0  0  0  0  0  0  0  0  0
    8.6762   29.9115    8.2044 C   0  0  0  0  0  0  0  0  0  0  0  0
    5.6264   31.9907    9.2008 C   0  0  0  0  0  0  0  0  0  0  0  0
    7.3259   29.1018    9.7389 C   0  0  0  0  0  0  0  0  0  0  0  0
    3.2967   34.8330    4.8598 C   0  0  0  0  0  0  0  0  0  0  0  0
    2.4898   35.9557    4.7955 C   0  0  0  0  0  0  0  0  0  0  0  0
    1.3371   37.4996    3.1039 C   0  0  0  0  0  0  0  0  0  0  0  0
    2.1884   36.3291    3.4842 C   0  0  0  0  0  0  0  0  0  0  0  0
  4  6  2  0
  4  7  1  0
  2  9  1  0
  8 10  1  0
  5 11  2  0
  7 11  1  0
  9 11  1  0
  3 12  1  0
  1 13  1  0
  7 13  1  0
  6 14  1  0
  9 14  2  0
  1 15  1  0
 10 15  2  0
  5 16  1  0
 13 16  2  0
  1 17  2  0
  8 17  1  0
  2 18  1  0
  3 18  1  0
 18 19  2  0
 12 21  2  0
 19 21  1  0
 20 21  1  0
M  END
$$$$
