1ZZ1_SHH_B_2552_
     RDKit          3D

 19 19  0  0  0  0  0  0  0  0999 V2000
  -24.5780   10.1170  -17.6360 O   0  0  0  0  0  0  0  0  0  0  0  0
  -22.7800   12.1420  -17.9830 O   0  0  0  0  0  0  0  0  0  0  0  0
  -24.7230   11.4040  -18.3540 N   0  0  0  0  0  0  0  0  0  0  0  0
  -23.9780   12.3290  -18.0600 C   0  0  0  0  0  0  0  0  0  0  0  0
  -24.7020   13.6560  -17.9090 C   0  0  0  0  0  0  0  0  0  0  0  0
  -25.5950   13.8920  -16.7050 C   0  0  0  0  0  0  0  0  0  0  0  0
  -25.6300   15.4070  -16.5080 C   0  0  0  0  0  0  0  0  0  0  0  0
  -26.7790   15.9210  -15.6540 C   0  0  0  0  0  0  0  0  0  0  0  0
  -27.9020   16.4980  -16.5160 C   0  0  0  0  0  0  0  0  0  0  0  0
  -28.3350   17.9300  -16.1470 C   0  0  0  0  0  0  0  0  0  0  0  0
  -29.7920   18.0460  -15.6940 C   0  0  0  0  0  0  0  0  0  0  0  0
  -30.2410   17.2590  -14.8910 O   0  0  0  0  0  0  0  0  0  0  0  0
  -30.5630   19.0290  -16.1710 N   0  0  0  0  0  0  0  0  0  0  0  0
  -31.9060   19.0800  -15.9340 C   0  0  0  0  0  0  0  0  0  0  0  0
  -32.4070   19.7410  -14.8120 C   0  0  0  0  0  0  0  0  0  0  0  0
  -33.7870   19.8090  -14.5850 C   0  0  0  0  0  0  0  0  0  0  0  0
  -34.6720   19.2080  -15.4830 C   0  0  0  0  0  0  0  0  0  0  0  0
  -34.1740   18.5480  -16.6100 C   0  0  0  0  0  0  0  0  0  0  0  0
  -32.7970   18.4880  -16.8340 C   0  0  0  0  0  0  0  0  0  0  0  0
  1  3  1  0
  2  4  2  0
  3  4  1  0
  4  5  1  0
  5  6  1  0
  6  7  1  0
  7  8  1  0
  8  9  1  0
  9 10  1  0
 10 11  1  0
 11 12  2  0
 11 13  1  0
 13 14  1  0
 14 15  2  0
 15 16  1  0
 16 17  2  0
 17 18  1  0
 14 19  1  0
 18 19  2  0
M  END
$$$$
