4B6F_20L_A_1722_
     RDKit          3D

 29 30  0  0  0  0  0  0  0  0999 V2000
    0.3664   14.5304  -43.2090 N   0  0  0  0  0  0  0  0  0  0  0  0
    0.4245   14.3081  -41.7403 C   0  0  0  0  0  0  0  0  0  0  0  0
    7.8891   13.3347  -37.4611 C   0  0  0  0  0  0  0  0  0  0  0  0
    8.4052   14.1521  -38.4470 C   0  0  0  0  0  0  0  0  0  0  0  0
    7.5767   15.0118  -39.1337 C   0  0  0  0  0  0  0  0  0  0  0  0
    6.2249   15.0743  -38.8221 C   0  0  0  0  0  0  0  0  0  0  0  0
    5.7032   14.2244  -37.8587 C   0  0  0  0  0  0  0  0  0  0  0  0
    6.5406   13.3749  -37.1640 C   0  0  0  0  0  0  0  0  0  0  0  0
    1.7434   14.7277  -41.1418 C   0  0  0  0  0  0  0  0  0  0  0  0
    2.0148   16.0710  -40.8976 C   0  0  0  0  0  0  0  0  0  0  0  0
    3.2302   16.4585  -40.3707 C   0  0  0  0  0  0  0  0  0  0  0  0
    4.1747   15.5077  -40.0221 C   0  0  0  0  0  0  0  0  0  0  0  0
    3.9310   14.1699  -40.2988 C   0  0  0  0  0  0  0  0  0  0  0  0
    2.7198   13.7813  -40.8346 C   0  0  0  0  0  0  0  0  0  0  0  0
    5.4000   15.9115  -39.5363 O   0  0  0  0  0  0  0  0  0  0  0  0
    0.1782   13.7378  -43.6432 H   0  0  0  0  0  0  0  0  0  0  0  0
    1.1711   14.8495  -43.5148 H   0  0  0  0  0  0  0  0  0  0  0  0
   -0.2863   15.1374  -43.4114 H   0  0  0  0  0  0  0  0  0  0  0  0
    9.3355   14.1269  -38.6471 H   0  0  0  0  0  0  0  0  0  0  0  0
    3.4029   17.3785  -40.1982 H   0  0  0  0  0  0  0  0  0  0  0  0
    6.1881   12.8089  -36.4892 H   0  0  0  0  0  0  0  0  0  0  0  0
    4.7766   14.2608  -37.6467 H   0  0  0  0  0  0  0  0  0  0  0  0
    8.4631   12.7425  -36.9875 H   0  0  0  0  0  0  0  0  0  0  0  0
    1.3583   16.7269  -41.1080 H   0  0  0  0  0  0  0  0  0  0  0  0
    2.5459   12.8594  -40.9961 H   0  0  0  0  0  0  0  0  0  0  0  0
    4.5825   13.5210  -40.0897 H   0  0  0  0  0  0  0  0  0  0  0  0
    7.9300   15.5759  -39.8055 H   0  0  0  0  0  0  0  0  0  0  0  0
   -0.3041   14.8149  -41.3303 H   0  0  0  0  0  0  0  0  0  0  0  0
    0.2707   13.3570  -41.5737 H   0  0  0  0  0  0  0  0  0  0  0  0
  1  2  1  0
  3  4  2  0
  4  5  1  0
  5  6  2  0
  6  7  1  0
  7  8  2  0
  3  8  1  0
  2  9  1  0
  9 10  2  0
 10 11  1  0
 11 12  2  0
 12 13  1  0
  9 14  1  0
 13 14  2  0
  6 15  1  0
 12 15  1  0
  1 16  1  0
  1 17  1  0
  1 18  1  0
  4 19  1  0
 11 20  1  0
  8 21  1  0
  7 22  1  0
  3 23  1  0
 10 24  1  0
 14 25  1  0
 13 26  1  0
  5 27  1  0
  2 28  1  0
  2 29  1  0
M  CHG  1   1   1
M  END
$$$$
