4DEA_NHI_A_504_
     RDKit          3D

 26 28  0  0  0  0  0  0  0  0999 V2000
    0.8495   51.4120   36.3567 C   0  0  0  0  0  0  0  0  0  0  0  0
    5.9303   55.5218   32.1148 N   0  0  0  0  0  0  0  0  0  0  0  0
   -0.2206   52.3593   36.4382 O   0  0  0  0  0  0  0  0  0  0  0  0
    6.0210   54.3473   34.1340 N   0  0  0  0  0  0  0  0  0  0  0  0
    0.6094   50.2196   36.3096 O   0  0  0  0  0  0  0  0  0  0  0  0
    7.9897   55.1538   33.0033 N   0  0  0  0  0  0  0  0  0  0  0  0
    6.2820   53.1891   36.1425 N   0  0  0  0  0  0  0  0  0  0  0  0
    2.2549   55.3426   32.6341 C   0  0  0  0  0  0  0  0  0  0  0  0
    1.8400   56.4640   31.8638 C   0  0  0  0  0  0  0  0  0  0  0  0
    2.8317   57.2518   31.1814 C   0  0  0  0  0  0  0  0  0  0  0  0
    4.2128   56.9178   31.2835 C   0  0  0  0  0  0  0  0  0  0  0  0
    4.6370   55.8001   32.0577 C   0  0  0  0  0  0  0  0  0  0  0  0
    3.6300   55.0171   32.7247 C   0  0  0  0  0  0  0  0  0  0  0  0
    0.5010   56.7920   31.7810 C   0  0  0  0  0  0  0  0  0  0  0  0
    6.6357   54.9997   33.1007 C   0  0  0  0  0  0  0  0  0  0  0  0
    6.8211   53.8256   35.1266 C   0  0  0  0  0  0  0  0  0  0  0  0
    8.2138   53.9421   35.1109 C   0  0  0  0  0  0  0  0  0  0  0  0
    8.7481   54.6225   34.0122 C   0  0  0  0  0  0  0  0  0  0  0  0
    5.0338   52.7971   36.2005 C   0  0  0  0  0  0  0  0  0  0  0  0
    4.7237   51.4090   36.2854 C   0  0  0  0  0  0  0  0  0  0  0  0
    3.3676   50.9757   36.3390 C   0  0  0  0  0  0  0  0  0  0  0  0
    2.3105   51.9327   36.3079 C   0  0  0  0  0  0  0  0  0  0  0  0
    2.6149   53.3114   36.2299 C   0  0  0  0  0  0  0  0  0  0  0  0
    3.9592   53.7440   36.1788 C   0  0  0  0  0  0  0  0  0  0  0  0
   -0.3623   55.9473   31.8869 O   0  0  0  0  0  0  0  0  0  0  0  0
    0.1365   58.0535   31.6013 O   0  0  0  0  0  0  0  0  0  0  0  0
  1  3  2  0
  1  5  1  0
  8  9  2  0
  9 10  1  0
 10 11  2  0
  2 12  1  0
 11 12  1  0
  8 13  1  0
 12 13  2  0
  9 14  1  0
  2 15  1  0
  4 15  2  0
  6 15  1  0
  4 16  1  0
  7 16  1  0
 16 17  2  0
  6 18  2  0
 17 18  1  0
  7 19  1  0
 19 20  2  0
 20 21  1  0
  1 22  1  0
 21 22  2  0
 22 23  1  0
 19 24  1  0
 23 24  2  0
 14 25  2  0
 14 26  1  0
M  END
$$$$
