3H0Z_45B_B_1_
     RDKit          3D

 43 47  0  0  0  0  0  0  0  0999 V2000
   -0.9970   49.3990   34.5370 Cl  0  0  0  0  0  0  0  0  0  0  0  0
   -1.4510   48.9240   36.2040 C   0  0  0  0  0  0  0  0  0  0  0  0
   -2.7050   48.3600   36.4420 C   0  0  0  0  0  0  0  0  0  0  0  0
   -3.0680   47.9860   37.7320 C   0  0  0  0  0  0  0  0  0  0  0  0
   -2.1730   48.1770   38.7810 C   0  0  0  0  0  0  0  0  0  0  0  0
   -0.9190   48.7410   38.5370 C   0  0  0  0  0  0  0  0  0  0  0  0
   -0.5540   49.1220   37.2450 C   0  0  0  0  0  0  0  0  0  0  0  0
    0.7160   49.6870   37.0120 N   0  0  0  0  0  0  0  0  0  0  0  0
    0.9260   50.9670   36.6620 C   0  0  0  0  0  0  0  0  0  0  0  0
    0.0120   51.7620   36.5000 O   0  0  0  0  0  0  0  0  0  0  0  0
    2.3370   51.4430   36.4360 C   0  0  0  0  0  0  0  0  0  0  0  0
    2.6430   52.8080   36.4170 C   0  0  0  0  0  0  0  0  0  0  0  0
    3.9570   53.2320   36.2050 C   0  0  0  0  0  0  0  0  0  0  0  0
    3.3640   50.5150   36.2320 C   0  0  0  0  0  0  0  0  0  0  0  0
    4.6740   50.9400   36.0130 C   0  0  0  0  0  0  0  0  0  0  0  0
    4.9720   52.2960   35.9990 C   0  0  0  0  0  0  0  0  0  0  0  0
    6.2990   52.6790   35.7760 N   0  0  0  0  0  0  0  0  0  0  0  0
    6.6780   53.5990   34.8790 C   0  0  0  0  0  0  0  0  0  0  0  0
    5.8460   54.1470   33.9920 N   0  0  0  0  0  0  0  0  0  0  0  0
    7.9470   53.9900   34.9450 C   0  0  0  0  0  0  0  0  0  0  0  0
    8.7260   53.4560   35.8590 F   0  0  0  0  0  0  0  0  0  0  0  0
    8.4480   54.9110   34.1020 C   0  0  0  0  0  0  0  0  0  0  0  0
    7.6850   55.5090   33.1910 N   0  0  0  0  0  0  0  0  0  0  0  0
    6.3540   55.0100   32.9360 C   0  0  0  0  0  0  0  0  0  0  0  0
    5.5380   55.7950   32.0160 N   0  0  0  0  0  0  0  0  0  0  0  0
    4.1840   55.9520   32.0110 C   0  0  0  0  0  0  0  0  0  0  0  0
    3.6720   56.9710   31.2030 C   0  0  0  0  0  0  0  0  0  0  0  0
    2.3020   57.2100   31.1290 C   0  0  0  0  0  0  0  0  0  0  0  0
    1.4180   56.4330   31.8690 C   0  0  0  0  0  0  0  0  0  0  0  0
    1.9100   55.4110   32.6650 C   0  0  0  0  0  0  0  0  0  0  0  0
    3.2770   55.1740   32.7380 C   0  0  0  0  0  0  0  0  0  0  0  0
   -0.0740   56.6590   31.7940 C   0  0  0  0  0  0  0  0  0  0  0  0
   -0.5690   55.7390   30.6930 C   0  0  0  0  0  0  0  0  0  0  0  0
   -0.5020   54.5320   30.9070 O   0  0  0  0  0  0  0  0  0  0  0  0
   -1.0300   56.2140   29.5190 N   0  0  0  0  0  0  0  0  0  0  0  0
   -1.4820   55.2870   28.4860 C   0  0  0  0  0  0  0  0  0  0  0  0
   -0.5790   55.5020   27.2750 C   0  0  0  0  0  0  0  0  0  0  0  0
   -0.8340   56.8730   26.8540 N   0  0  0  0  0  0  0  0  0  0  0  0
   -0.3590   57.8450   27.8380 C   0  0  0  0  0  0  0  0  0  0  0  0
   -1.1630   57.6230   29.1220 C   0  0  0  0  0  0  0  0  0  0  0  0
   -1.4350   57.2080   25.7020 C   0  0  0  0  0  0  0  0  0  0  0  0
   -1.6380   58.3680   25.3790 O   0  0  0  0  0  0  0  0  0  0  0  0
   -1.8620   56.0920   24.7960 C   0  0  0  0  0  0  0  0  0  0  0  0
  1  2  1  0
  2  3  2  0
  3  4  1  0
  4  5  2  0
  5  6  1  0
  2  7  1  0
  6  7  2  0
  7  8  1  0
  8  9  1  0
  9 10  2  0
  9 11  1  0
 11 12  2  0
 12 13  1  0
 11 14  1  0
 14 15  2  0
 13 16  2  0
 15 16  1  0
 16 17  1  0
 17 18  1  0
 18 19  2  0
 18 20  1  0
 20 21  1  0
 20 22  2  0
 22 23  1  0
 19 24  1  0
 23 24  2  0
 24 25  1  0
 25 26  1  0
 26 27  2  0
 27 28  1  0
 28 29  2  0
 29 30  1  0
 26 31  1  0
 30 31  2  0
 29 32  1  0
 32 33  1  0
 33 34  2  0
 33 35  1  0
 35 36  1  0
 36 37  1  0
 37 38  1  0
 38 39  1  0
 35 40  1  0
 39 40  1  0
 38 41  1  0
 41 42  2  0
 41 43  1  0
M  END
$$$$
