3IME_BZ2_A_301_
     RDKit          3D

 12 13  0  0  0  0  0  0  0  0999 V2000
   -0.2223  -12.7078   33.8893 O   0  0  0  0  0  0  0  0  0  0  0  0
    1.0317  -11.5442   35.2970 O   0  0  0  0  0  0  0  0  0  0  0  0
    2.7556   -9.4479   29.0276 C   0  0  0  0  0  0  0  0  0  0  0  0
    3.4666   -8.6064   29.8792 C   0  0  0  0  0  0  0  0  0  0  0  0
    1.9135  -10.3847   29.5909 C   0  0  0  0  0  0  0  0  0  0  0  0
    3.3418   -8.6961   31.2619 C   0  0  0  0  0  0  0  0  0  0  0  0
    1.0643  -11.2959   31.7445 C   0  0  0  0  0  0  0  0  0  0  0  0
    2.1605   -9.9738   33.1473 O   0  0  0  0  0  0  0  0  0  0  0  0
    0.6107  -11.8002   34.1570 C   0  0  0  0  0  0  0  0  0  0  0  0
    1.2621  -11.0079   33.0264 C   0  0  0  0  0  0  0  0  0  0  0  0
    1.7857  -10.4796   30.9795 C   0  0  0  0  0  0  0  0  0  0  0  0
    2.4933   -9.6383   31.8354 C   0  0  0  0  0  0  0  0  0  0  0  0
  3  4  2  0
  3  5  1  0
  4  6  1  0
  1  9  1  0
  2  9  2  0
  7 10  2  0
  8 10  1  0
  9 10  1  0
  5 11  2  0
  7 11  1  0
  6 12  2  0
  8 12  1  0
 11 12  1  0
M  END
$$$$
