
     RDKit          3D

 12 13  0  0  0  0  0  0  0  0999 V2000
   -2.3643    0.3814    1.6033 C   0  0  0  0  0  0  0  0  0  0  0  0
   -1.3130    0.9205    2.3792 C   0  0  0  0  0  0  0  0  0  0  0  0
   -2.1024   -0.1783    0.3387 C   0  0  0  0  0  0  0  0  0  0  0  0
    0.0094    0.9047    1.8972 C   0  0  0  0  0  0  0  0  0  0  0  0
   -0.2271   -0.6446   -1.2771 C   0  0  0  0  0  0  0  0  0  0  0  0
   -0.7830   -0.1781   -0.1085 C   0  0  0  0  0  0  0  0  0  0  0  0
    0.2368    0.3441    0.6424 C   0  0  0  0  0  0  0  0  0  0  0  0
    1.1314   -0.3626   -1.1456 C   0  0  0  0  0  0  0  0  0  0  0  0
    2.1679   -0.6672   -2.1371 C   0  0  0  0  0  0  0  0  0  0  0  0
    1.8648   -1.2325   -3.2218 O   0  0  0  0  0  0  0  0  0  0  0  0
    3.4918   -0.3294   -1.8766 O   0  0  0  0  0  0  0  0  0  0  0  0
    1.3788    0.2276    0.0104 O   0  0  0  0  0  0  0  0  0  0  0  0
  1  2  2  0
  1  3  1  0
  2  4  1  0
  3  6  2  0
  4  7  2  0
  5  6  1  0
  5  8  2  0
  6  7  1  0
  7 12  1  0
  8  9  1  0
  8 12  1  0
  9 10  2  0
  9 11  1  0
M  END
$$$$
