
     RDKit          3D

 20 22  0  0  0  0  0  0  0  0999 V2000
    4.5872   -2.4914   -0.4505 C   0  0  0  0  0  0  0  0  0  0  0  0
   -2.0096   -1.2793   -0.4747 C   0  0  0  0  0  0  0  0  0  0  0  0
   -2.5475   -1.7330    0.8867 C   0  0  0  0  0  0  0  0  0  0  0  0
    1.2382    1.6199   -0.0506 C   0  0  0  0  0  0  0  0  0  0  0  0
   -0.9142   -0.2413   -0.3222 C   0  0  0  0  0  0  0  0  0  0  0  0
   -0.0974    2.0842    0.0016 C   0  0  0  0  0  0  0  0  0  0  0  0
    1.4546    0.2616   -0.2167 C   0  0  0  0  0  0  0  0  0  0  0  0
   -1.1839    1.1523   -0.1194 C   0  0  0  0  0  0  0  0  0  0  0  0
    0.4330   -0.6343   -0.3432 C   0  0  0  0  0  0  0  0  0  0  0  0
   -0.4131    3.4510    0.1830 C   0  0  0  0  0  0  0  0  0  0  0  0
   -2.7295    2.9436    0.1538 C   0  0  0  0  0  0  0  0  0  0  0  0
    2.2888   -1.6796   -0.4185 C   0  0  0  0  0  0  0  0  0  0  0  0
   -3.9496    3.3713    0.2360 N   0  0  0  0  0  0  0  0  0  0  0  0
    3.1401   -2.6585   -0.5047 N   0  0  0  0  0  0  0  0  0  0  0  0
    2.6356   -0.3774   -0.2644 N   0  0  0  0  0  0  0  0  0  0  0  0
   -2.4677    1.6197   -0.0291 N   0  0  0  0  0  0  0  0  0  0  0  0
    0.9508   -1.8731   -0.4702 N   0  0  0  0  0  0  0  0  0  0  0  0
   -1.7118    3.8301    0.2528 N   0  0  0  0  0  0  0  0  0  0  0  0
   -1.5431   -2.3636    1.6351 O   0  0  0  0  0  0  0  0  0  0  0  0
    0.5562    4.4515    0.2955 O   0  0  0  0  0  0  0  0  0  0  0  0
  1 14  1  0
  2  3  1  0
  2  5  1  0
  3 19  1  0
  4  6  2  0
  4  7  1  0
  5  8  2  0
  5  9  1  0
  6  8  1  0
  6 10  1  0
  7  9  2  0
  7 15  1  0
  8 16  1  0
  9 17  1  0
 10 18  2  0
 10 20  1  0
 11 13  2  3
 11 16  1  0
 11 18  1  0
 12 14  2  3
 12 15  1  0
 12 17  1  0
M  END
$$$$
