3EOU_PK3_A_500_
     RDKit          3D

 20 22  0  0  0  0  0  0  0  0999 V2000
   17.2878   17.2095   17.2434 N   0  0  0  0  0  0  0  0  0  0  0  0
   18.5978   17.6809   16.9832 C   0  0  0  0  0  0  0  0  0  0  0  0
   19.0332   17.8756   15.7173 N   0  0  0  0  0  0  0  0  0  0  0  0
   18.0468   17.8805   14.6361 C   0  0  0  0  0  0  0  0  0  0  0  0
   19.3049   17.9199   18.0991 N   0  0  0  0  0  0  0  0  0  0  0  0
   18.5491   17.5964   19.1494 C   0  0  0  0  0  0  0  0  0  0  0  0
   17.3261   17.1685   18.6610 C   0  0  0  0  0  0  0  0  0  0  0  0
   16.2809   16.8076   19.5225 C   0  0  0  0  0  0  0  0  0  0  0  0
   14.9893   16.2173   18.8784 C   0  0  0  0  0  0  0  0  0  0  0  0
   16.5341   16.7982   20.9064 C   0  0  0  0  0  0  0  0  0  0  0  0
   15.5833   16.4743   21.8194 N   0  0  0  0  0  0  0  0  0  0  0  0
   15.7469   16.5372   23.2003 C   0  0  0  0  0  0  0  0  0  0  0  0
   14.7755   16.1753   23.9573 N   0  0  0  0  0  0  0  0  0  0  0  0
   16.9492   16.9399   23.6827 N   0  0  0  0  0  0  0  0  0  0  0  0
   17.9578   17.3269   22.8808 C   0  0  0  0  0  0  0  0  0  0  0  0
   19.0306   17.7150   23.2944 O   0  0  0  0  0  0  0  0  0  0  0  0
   17.7760   17.2531   21.3808 C   0  0  0  0  0  0  0  0  0  0  0  0
   18.7967   17.6769   20.5188 C   0  0  0  0  0  0  0  0  0  0  0  0
   15.2469   14.7388   18.4122 C   0  0  0  0  0  0  0  0  0  0  0  0
   14.3254   14.3536   17.3907 O   0  0  0  0  0  0  0  0  0  0  0  0
  1  2  1  0
  2  3  1  0
  3  4  1  0
  2  5  2  0
  5  6  1  0
  1  7  1  0
  6  7  2  0
  7  8  1  0
  8  9  1  0
  8 10  2  0
 10 11  1  0
 11 12  2  0
 12 13  1  0
 12 14  1  0
 14 15  1  0
 15 16  2  0
 10 17  1  0
 15 17  1  0
  6 18  1  0
 17 18  2  0
  9 19  1  0
 19 20  1  0
M  END
$$$$
