
     RDKit          3D

 12 13  0  0  0  0  0  0  0  0999 V2000
   -2.1873   -1.0938   -0.3291 C   0  0  0  0  0  0  0  0  0  0  0  0
   -2.3404    0.3609    0.1542 C   0  0  0  0  0  0  0  0  0  0  0  0
   -0.7257   -1.4915   -0.5706 C   0  0  0  0  0  0  0  0  0  0  0  0
    1.5376   -1.4203    0.3106 C   0  0  0  0  0  0  0  0  0  0  0  0
   -1.0178    1.1389    0.0980 C   0  0  2  0  0  0  0  0  0  0  0  0
    2.2591   -0.1345   -0.0664 C   0  0  2  0  0  0  0  0  0  0  0  0
    0.0730    0.3648    0.8883 C   0  0  2  0  0  0  0  0  0  0  0  0
    1.5065    0.9196    0.7352 C   0  0  2  0  0  0  0  0  0  0  0  0
    0.1254   -1.0873    0.5681 N   0  0  0  0  0  0  0  0  0  0  0  0
   -1.1956    2.4118    0.6646 O   0  0  0  0  0  0  0  0  0  0  0  0
    2.1420    0.0919   -1.4480 O   0  0  0  0  0  0  0  0  0  0  0  0
    1.5941    2.2225    0.2030 O   0  0  0  0  0  0  0  0  0  0  0  0
  1  2  1  0
  1  3  1  0
  2  5  1  0
  3  9  1  0
  4  6  1  0
  4  9  1  0
  5  7  1  0
  5 10  1  1
  6  8  1  0
  6 11  1  6
  7  8  1  0
  7  9  1  6
  8 12  1  6
M  END
$$$$
