
     RDKit          3D

 35 38  0  0  0  0  0  0  0  0999 V2000
   -8.9980    2.3772   -2.0142 C   0  0  0  0  0  0  0  0  0  0  0  0
    9.6949    2.2690   -1.2965 C   0  0  0  0  0  0  0  0  0  0  0  0
   -8.3505    1.8245   -3.1223 C   0  0  0  0  0  0  0  0  0  0  0  0
   -9.1360    1.6301   -0.8413 C   0  0  0  0  0  0  0  0  0  0  0  0
    8.5561    2.9731   -0.8950 C   0  0  0  0  0  0  0  0  0  0  0  0
    9.5641    1.0351   -1.9412 C   0  0  0  0  0  0  0  0  0  0  0  0
   -7.8426    0.5231   -3.0607 C   0  0  0  0  0  0  0  0  0  0  0  0
   -8.6310    0.3281   -0.7756 C   0  0  0  0  0  0  0  0  0  0  0  0
    7.2840    2.4454   -1.1390 C   0  0  0  0  0  0  0  0  0  0  0  0
    8.2935    0.5046   -2.1893 C   0  0  0  0  0  0  0  0  0  0  0  0
   -1.3873   -0.1444    2.3793 C   0  0  0  0  0  0  0  0  0  0  0  0
    2.2791   -2.7108    3.6992 C   0  0  0  0  0  0  0  0  0  0  0  0
   -0.1946   -0.8418    1.7198 C   0  0  0  0  0  0  0  0  0  0  0  0
    0.8007   -2.3321    3.8099 C   0  0  0  0  0  0  0  0  0  0  0  0
   -7.4168   -1.6266   -1.8079 C   0  0  0  0  0  0  0  0  0  0  0  0
    5.7775    0.6268   -2.0334 C   0  0  0  0  0  0  0  0  0  0  0  0
   -7.9907   -0.2396   -1.8902 C   0  0  0  0  0  0  0  0  0  0  0  0
    7.1434    1.2118   -1.7995 C   0  0  0  0  0  0  0  0  0  0  0  0
   -6.0370   -1.5766   -1.2313 C   0  0  0  0  0  0  0  0  0  0  0  0
    5.3857   -0.2357   -0.8756 C   0  0  0  0  0  0  0  0  0  0  0  0
   -2.6871   -0.7313    1.9237 C   0  0  0  0  0  0  0  0  0  0  0  0
    3.0454   -1.7126    2.8902 C   0  0  0  0  0  0  0  0  0  0  0  0
   -4.6784   -1.4821    0.8076 C   0  0  0  0  0  0  0  0  0  0  0  0
    4.2003   -0.3739    1.2646 C   0  0  0  0  0  0  0  0  0  0  0  0
   -5.8896   -1.6510    0.0610 N   0  0  0  0  0  0  0  0  0  0  0  0
    4.7325    0.2978    0.1176 N   0  0  0  0  0  0  0  0  0  0  0  0
   -3.3753   -1.6603    2.6230 N   0  0  0  0  0  0  0  0  0  0  0  0
    3.4244   -0.5033    3.3617 N   0  0  0  0  0  0  0  0  0  0  0  0
   -4.4902   -2.0613    2.0138 N   0  0  0  0  0  0  0  0  0  0  0  0
    4.0546    0.2429    2.4562 N   0  0  0  0  0  0  0  0  0  0  0  0
   -4.9540   -1.4568   -2.1060 O   0  0  0  0  0  0  0  0  0  0  0  0
    5.8017   -1.5692   -0.8701 O   0  0  0  0  0  0  0  0  0  0  0  0
   -0.0723   -2.6000    2.2212 S   0  0  0  0  0  0  0  0  0  0  0  0
   -3.4598   -0.3589    0.4715 S   0  0  0  0  0  0  0  0  0  0  0  0
    3.4664   -1.8964    1.2688 S   0  0  0  0  0  0  0  0  0  0  0  0
  1  3  2  0
  1  4  1  0
  2  5  2  0
  2  6  1  0
  3  7  1  0
  4  8  2  0
  5  9  1  0
  6 10  2  0
  7 17  2  0
  8 17  1  0
  9 18  2  0
 10 18  1  0
 11 13  1  0
 11 21  1  0
 12 14  1  0
 12 22  1  0
 13 33  1  0
 14 33  1  0
 15 17  1  0
 15 19  1  0
 16 18  1  0
 16 20  1  0
 19 25  2  3
 19 31  1  0
 20 26  2  3
 20 32  1  0
 21 27  2  0
 21 34  1  0
 22 28  2  0
 22 35  1  0
 23 25  1  0
 23 29  2  0
 23 34  1  0
 24 26  1  0
 24 30  2  0
 24 35  1  0
 27 29  1  0
 28 30  1  0
M  END
$$$$
