
     RDKit          3D

 25 27  0  0  0  0  0  0  0  0999 V2000
   -0.2024    3.4944   -0.0481 C   0  0  0  0  0  0  0  0  0  0  0  0
   -2.7540   -4.6097   -0.9506 C   0  0  0  0  0  0  0  0  0  0  0  0
    4.0706    0.4397   -1.0155 C   0  0  0  0  0  0  0  0  0  0  0  0
    2.6167   -0.1414    0.8351 C   0  0  0  0  0  0  0  0  0  0  0  0
    5.1033   -0.3023   -0.4342 C   0  0  0  0  0  0  0  0  0  0  0  0
    3.6516   -0.8825    1.4129 C   0  0  0  0  0  0  0  0  0  0  0  0
   -0.7793   -2.4013   -1.0599 C   0  0  0  0  0  0  0  0  0  0  0  0
    0.1217   -1.3231   -1.0900 C   0  0  0  0  0  0  0  0  0  0  0  0
   -2.5566   -0.9283   -0.2553 C   0  0  0  0  0  0  0  0  0  0  0  0
   -3.0392    2.1450    0.4822 C   0  0  0  0  0  0  0  0  0  0  0  0
   -0.5351    2.0399   -0.2165 C   0  0  0  0  0  0  0  0  0  0  0  0
    2.8127    0.5205   -0.3911 C   0  0  0  0  0  0  0  0  0  0  0  0
    4.8944   -0.9654    0.7785 C   0  0  0  0  0  0  0  0  0  0  0  0
   -2.1235   -2.2114   -0.6388 C   0  0  0  0  0  0  0  0  0  0  0  0
   -1.7929    1.4670   -0.0095 C   0  0  0  0  0  0  0  0  0  0  0  0
   -1.6397    0.1223   -0.2952 C   0  0  0  0  0  0  0  0  0  0  0  0
   -0.3375   -0.0673   -0.6835 C   0  0  0  0  0  0  0  0  0  0  0  0
   -3.1246    2.0432    1.9707 C   0  0  0  0  0  0  0  0  0  0  0  0
    1.7199    1.3094   -1.0081 C   0  0  0  0  0  0  0  0  0  0  0  0
    6.1914   -1.8959    1.5057 Cl  0  0  0  0  0  0  0  0  0  0  0  0
    0.3475    1.0964   -0.6381 N   0  0  0  0  0  0  0  0  0  0  0  0
   -3.6817    1.0469    2.5044 O   0  0  0  0  0  0  0  0  0  0  0  0
   -2.5503    3.0283    2.7676 O   0  0  0  0  0  0  0  0  0  0  0  0
    1.9946    2.1973   -1.8603 O   0  0  0  0  0  0  0  0  0  0  0  0
   -3.0496   -3.2637   -0.5932 O   0  0  0  0  0  0  0  0  0  0  0  0
  1 11  1  0
  2 25  1  0
  3  5  2  0
  3 12  1  0
  4  6  1  0
  4 12  2  0
  5 13  1  0
  6 13  2  0
  7  8  2  0
  7 14  1  0
  8 17  1  0
  9 14  2  0
  9 16  1  0
 10 15  1  0
 10 18  1  0
 11 15  2  0
 11 21  1  0
 12 19  1  0
 13 20  1  0
 14 25  1  0
 15 16  1  0
 16 17  2  0
 17 21  1  0
 18 22  2  0
 18 23  1  0
 19 21  1  0
 19 24  2  0
M  END
$$$$
