3UVQ_FS8_A_361_
     RDKit          3D

 39 43  0  0  0  0  0  0  0  0999 V2000
   -0.5410   -1.8270  -15.4310 O   0  0  0  0  0  0  0  0  0  0  0  0
   -2.2270    4.3980  -23.0010 O   0  0  0  0  0  0  0  0  0  0  0  0
   -5.7270    6.8740  -29.5600 O   0  0  0  0  0  0  0  0  0  0  0  0
   -4.9810    4.7820  -30.9480 O   0  0  0  0  0  0  0  0  0  0  0  0
   -4.9910   -1.4070  -14.9830 F   0  0  0  0  0  0  0  0  0  0  0  0
    0.0610   -5.3060  -11.9570 C   0  0  0  0  0  0  0  0  0  0  0  0
   -0.5840   -5.8000  -13.0830 C   0  0  0  0  0  0  0  0  0  0  0  0
    0.2400   -3.9110  -11.8150 C   0  0  0  0  0  0  0  0  0  0  0  0
   -4.4160   -0.3360  -18.3180 C   0  0  0  0  0  0  0  0  0  0  0  0
   -2.8780    1.4230  -20.2900 C   0  0  0  0  0  0  0  0  0  0  0  0
   -1.0320   -4.8950  -14.0680 C   0  0  0  0  0  0  0  0  0  0  0  0
   -0.2180   -3.0280  -12.7860 C   0  0  0  0  0  0  0  0  0  0  0  0
   -5.0340   -0.5200  -17.0700 C   0  0  0  0  0  0  0  0  0  0  0  0
   -1.8500    2.7510  -27.5020 C   0  0  0  0  0  0  0  0  0  0  0  0
   -0.9480    2.0030  -26.7330 C   0  0  0  0  0  0  0  0  0  0  0  0
   -2.6890    2.4000  -21.2750 C   0  0  0  0  0  0  0  0  0  0  0  0
   -1.7380   -0.1400  -21.7580 C   0  0  0  0  0  0  0  0  0  0  0  0
   -2.5810   -1.7380  -17.5310 C   0  0  0  0  0  0  0  0  0  0  0  0
   -2.7780    3.7670  -25.5060 C   0  0  0  0  0  0  0  0  0  0  0  0
   -5.6090    5.6990  -28.7450 C   0  0  0  0  0  0  0  0  0  0  0  0
   -0.0430    1.3510  -24.6910 C   0  0  0  0  0  0  0  0  0  0  0  0
   -0.8610    0.2970  -23.8840 C   0  0  0  0  0  0  0  0  0  0  0  0
   -3.7700    3.9800  -29.0090 C   0  0  0  0  0  0  0  0  0  0  0  0
   -2.6580   -2.6820  -15.2860 N   0  0  0  0  0  0  0  0  0  0  0  0
   -2.4950   -0.8820  -19.6980 N   0  0  0  0  0  0  0  0  0  0  0  0
   -3.6470    4.3630  -27.6270 O   0  0  0  0  0  0  0  0  0  0  0  0
   -1.3470   -2.6130  -14.9310 C   0  0  0  0  0  0  0  0  0  0  0  0
   -2.0040    3.2510  -23.3830 C   0  0  0  0  0  0  0  0  0  0  0  0
   -2.3950    0.1440  -20.5410 C   0  0  0  0  0  0  0  0  0  0  0  0
   -3.1770   -0.9460  -18.5390 C   0  0  0  0  0  0  0  0  0  0  0  0
   -4.4270   -1.3000  -16.0610 C   0  0  0  0  0  0  0  0  0  0  0  0
   -2.7580    3.6210  -26.8930 C   0  0  0  0  0  0  0  0  0  0  0  0
   -0.8950   -3.5040  -13.9190 C   0  0  0  0  0  0  0  0  0  0  0  0
   -0.9580    2.1650  -25.3510 C   0  0  0  0  0  0  0  0  0  0  0  0
   -1.5390    0.8420  -22.7440 C   0  0  0  0  0  0  0  0  0  0  0  0
   -3.1900   -1.9100  -16.2760 C   0  0  0  0  0  0  0  0  0  0  0  0
   -2.0270    2.1410  -22.4950 C   0  0  0  0  0  0  0  0  0  0  0  0
   -1.8550    3.0460  -24.7450 C   0  0  0  0  0  0  0  0  0  0  0  0
   -5.1140    4.4740  -29.5510 C   0  0  0  0  0  0  0  0  0  0  0  0
  6  7  2  0
  6  8  1  0
  7 11  1  0
  8 12  2  0
  9 13  2  0
 14 15  1  0
 10 16  2  0
  3 20  1  0
 21 22  1  0
 23 26  1  0
  1 27  2  0
 24 27  1  0
  2 28  2  0
 10 29  1  0
 17 29  2  0
 25 29  1  0
  9 30  1  0
 18 30  2  0
 25 30  1  0
  5 31  1  0
 13 31  1  0
 14 32  2  0
 19 32  1  0
 26 32  1  0
 11 33  2  0
 12 33  1  0
 27 33  1  0
 15 34  2  0
 21 34  1  0
 17 35  1  0
 22 35  1  0
 18 36  1  0
 24 36  1  0
 31 36  2  0
 16 37  1  0
 28 37  1  0
 35 37  2  0
 19 38  2  0
 28 38  1  0
 34 38  1  0
  4 39  1  0
 20 39  1  0
 23 39  1  0
M  END
$$$$
