3FUK_58Z_A_710_
     RDKit          3D

 21 23  0  0  0  0  0  0  0  0999 V2000
  -36.3690   -3.7590    2.5380 O   0  0  0  0  0  0  0  0  0  0  0  0
  -35.2230   -4.1670    2.2180 C   0  0  0  0  0  0  0  0  0  0  0  0
  -34.2970   -4.1950    3.0580 O   0  0  0  0  0  0  0  0  0  0  0  0
  -34.9630   -4.6440    0.7980 C   0  0  0  0  0  0  0  0  0  0  0  0
  -33.5030   -4.9300    0.4550 C   0  0  0  0  0  0  0  0  0  0  0  0
  -32.6090   -3.6810    0.3700 C   0  0  0  0  0  0  0  0  0  0  0  0
  -35.4290   -3.6440   -0.2550 C   0  0  0  0  0  0  0  0  0  0  0  0
  -34.5970   -2.3800   -0.4460 C   0  0  0  0  0  0  0  0  0  0  0  0
  -33.1890   -2.7230   -0.5620 N   0  0  0  0  0  0  0  0  0  0  0  0
  -32.3930   -2.0500   -1.5960 C   0  0  0  0  0  0  0  0  0  0  0  0
  -30.9030   -2.1940   -1.2620 C   0  0  0  0  0  0  0  0  0  0  0  0
  -30.0730   -1.1100   -1.7170 O   0  0  0  0  0  0  0  0  0  0  0  0
  -29.1020   -0.6670   -0.8350 C   0  0  0  0  0  0  0  0  0  0  0  0
  -29.4110    0.3420    0.0840 C   0  0  0  0  0  0  0  0  0  0  0  0
  -27.8150   -1.2230   -0.8090 C   0  0  0  0  0  0  0  0  0  0  0  0
  -26.8650   -0.7640    0.1190 C   0  0  0  0  0  0  0  0  0  0  0  0
  -25.5160   -1.2000    0.3110 C   0  0  0  0  0  0  0  0  0  0  0  0
  -25.0580   -0.4070    1.3500 C   0  0  0  0  0  0  0  0  0  0  0  0
  -26.0600    0.4320    1.7530 N   0  0  0  0  0  0  0  0  0  0  0  0
  -27.1860    0.2330    1.0140 C   0  0  0  0  0  0  0  0  0  0  0  0
  -28.4620    0.7970    1.0020 C   0  0  0  0  0  0  0  0  0  0  0  0
  1  2  2  0
  2  3  1  0
  2  4  1  0
  4  5  1  0
  5  6  1  0
  4  7  1  0
  7  8  1  0
  6  9  1  0
  8  9  1  0
  9 10  1  0
 10 11  1  0
 11 12  1  0
 12 13  1  0
 13 14  2  0
 13 15  1  0
 15 16  2  0
 16 17  1  0
 17 18  2  0
 18 19  1  0
 16 20  1  0
 19 20  1  0
 14 21  1  0
 20 21  2  0
M  END
$$$$
