
     RDKit          3D

 21 23  0  0  0  0  0  0  0  0999 V2000
    3.7072   -1.1011    1.8890 C   0  0  0  0  0  0  0  0  0  0  0  0
    4.9421   -0.7670    1.3046 C   0  0  0  0  0  0  0  0  0  0  0  0
    4.0817    0.6233   -1.8388 C   0  0  0  0  0  0  0  0  0  0  0  0
   -2.9828    1.1405   -1.1930 C   0  0  0  0  0  0  0  0  0  0  0  0
   -3.4030   -0.8576    0.3757 C   0  0  0  0  0  0  0  0  0  0  0  0
    5.4709    0.7010   -1.8425 C   0  0  0  0  0  0  0  0  0  0  0  0
   -1.5924    1.0483   -0.5589 C   0  0  0  0  0  0  0  0  0  0  0  0
   -2.8633    0.1423    1.4100 C   0  0  0  0  0  0  0  0  0  0  0  0
   -0.3993    0.5140    1.5394 C   0  0  0  0  0  0  0  0  0  0  0  0
   -0.0193   -0.9684    1.3471 C   0  0  0  0  0  0  0  0  0  0  0  0
    2.5165   -0.2665   -0.0800 C   0  0  0  0  0  0  0  0  0  0  0  0
   -3.7784   -0.1631   -0.9579 C   0  0  0  0  0  0  0  0  0  0  0  0
    3.7566    0.0520   -0.6278 C   0  0  0  0  0  0  0  0  0  0  0  0
    2.4900   -0.8544    1.2104 C   0  0  0  0  0  0  0  0  0  0  0  0
    4.9270   -0.1885    0.0385 C   0  0  0  0  0  0  0  0  0  0  0  0
   -5.2570    0.1050   -1.0433 C   0  0  0  0  0  0  0  0  0  0  0  0
    5.9827    0.2037   -0.6932 N   0  0  0  0  0  0  0  0  0  0  0  0
   -1.6836    0.8932    0.9117 N   0  0  0  0  0  0  0  0  0  0  0  0
   -5.8402    0.7621   -0.1388 O   0  0  0  0  0  0  0  0  0  0  0  0
   -5.9807   -0.3565   -2.1385 O   0  0  0  0  0  0  0  0  0  0  0  0
    1.2932   -1.2134    1.8520 O   0  0  0  0  0  0  0  0  0  0  0  0
  1  2  2  0
  1 14  1  0
  2 15  1  0
  3  6  2  0
  3 13  1  0
  4  7  1  0
  4 12  1  0
  5  8  1  0
  5 12  1  0
  6 17  1  0
  7 18  1  0
  8 18  1  0
  9 10  1  0
  9 18  1  0
 10 21  1  0
 11 13  1  0
 11 14  2  0
 12 16  1  0
 13 15  2  0
 14 21  1  0
 15 17  1  0
 16 19  2  0
 16 20  1  0
M  END
$$$$
