
     RDKit          3D

 15 16  0  0  0  0  0  0  0  0999 V2000
   -0.6605    2.4424    0.3391 C   0  0  0  0  0  0  0  0  0  0  0  0
   -0.0325   -2.4937   -0.6011 C   0  0  0  0  0  0  0  0  0  0  0  0
   -1.1491   -1.6855   -0.4095 C   0  0  0  0  0  0  0  0  0  0  0  0
    0.4540    1.6282    0.1651 C   0  0  0  0  0  0  0  0  0  0  0  0
   -1.9399    1.9010    0.2990 C   0  0  0  0  0  0  0  0  0  0  0  0
    1.2477   -1.9584   -0.5218 C   0  0  0  0  0  0  0  0  0  0  0  0
   -1.0058   -0.3118   -0.1251 C   0  0  0  0  0  0  0  0  0  0  0  0
    0.3094    0.2455   -0.0698 C   0  0  0  0  0  0  0  0  0  0  0  0
   -2.1340    0.5305    0.0845 C   0  0  0  0  0  0  0  0  0  0  0  0
    1.4400   -0.5957   -0.2608 C   0  0  0  0  0  0  0  0  0  0  0  0
   -3.4810    0.0311    0.1029 N   0  0  0  0  0  0  0  0  0  0  0  0
    3.3754    0.7399    1.3120 O   0  0  0  0  0  0  0  0  0  0  0  0
    4.0911   -1.1086   -0.3535 O   0  0  0  0  0  0  0  0  0  0  0  0
    3.3221    1.0168   -1.2773 O   0  0  0  0  0  0  0  0  0  0  0  0
    3.1051    0.0131   -0.1801 S   0  0  0  0  0  6  0  0  0  0  0  0
  1  4  2  0
  1  5  1  0
  2  3  2  0
  2  6  1  0
  3  7  1  0
  4  8  1  0
  5  9  2  0
  6 10  2  0
  7  8  2  0
  7  9  1  0
  8 10  1  0
  9 11  1  0
 10 15  1  0
 12 15  1  0
 13 15  2  0
 14 15  2  0
M  END
$$$$
