
     RDKit          3D

 32 34  0  0  0  0  0  0  0  0999 V2000
   -7.4524   -1.1478    0.5668 C   0  0  0  0  0  0  0  0  0  0  0  0
    3.8999   -1.5742    2.2001 C   0  0  0  0  0  0  0  0  0  0  0  0
   -3.2279   -1.4261   -0.3976 C   0  0  0  0  0  0  0  0  0  0  0  0
    3.9507   -0.7389    3.3190 C   0  0  0  0  0  0  0  0  0  0  0  0
   -4.5850   -1.3555   -0.0843 C   0  0  0  0  0  0  0  0  0  0  0  0
    3.4369   -0.0449   -2.7280 C   0  0  0  0  0  0  0  0  0  0  0  0
    3.4089    1.3176   -2.9958 C   0  0  0  0  0  0  0  0  0  0  0  0
    5.0298    0.1203    0.8867 C   0  0  0  0  0  0  0  0  0  0  0  0
   -3.1582    0.9769   -0.6473 C   0  0  0  0  0  0  0  0  0  0  0  0
    4.3810   -2.0503   -0.2264 C   0  0  0  0  0  0  0  0  0  0  0  0
    4.4449   -1.1530    0.9782 C   0  0  0  0  0  0  0  0  0  0  0  0
   -2.5109   -0.2625   -0.6858 C   0  0  0  0  0  0  0  0  0  0  0  0
   -4.5274    1.0700   -0.3328 C   0  0  0  0  0  0  0  0  0  0  0  0
    4.5389    0.5276    3.2284 C   0  0  0  0  0  0  0  0  0  0  0  0
    5.0784    0.9604    2.0051 C   0  0  0  0  0  0  0  0  0  0  0  0
   -5.2518   -0.1143   -0.0485 C   0  0  0  0  0  0  0  0  0  0  0  0
    2.7443   -0.4006   -1.5635 C   0  0  0  0  0  0  0  0  0  0  0  0
    2.1394    0.6830   -0.9316 C   0  0  0  0  0  0  0  0  0  0  0  0
    1.3290    0.6548    0.2938 C   0  0  0  0  0  0  0  0  0  0  0  0
   -5.1690    2.4111   -0.3075 C   0  0  0  0  0  0  0  0  0  0  0  0
    4.5722    1.5553    4.6545 Cl  0  0  0  0  0  0  0  0  0  0  0  0
    5.8053    2.5528    1.8412 Cl  0  0  0  0  0  0  0  0  0  0  0  0
    0.1022    0.2214    0.3086 N   0  0  0  0  0  0  0  0  0  0  0  0
    1.8910    1.1425    1.4681 O   0  0  0  0  0  0  0  0  0  0  0  0
   -6.3913    2.5413   -0.0290 O   0  0  0  0  0  0  0  0  0  0  0  0
   -4.4190    3.5496   -0.5938 O   0  0  0  0  0  0  0  0  0  0  0  0
   -0.4052   -1.7530   -1.3966 O   0  0  0  0  0  0  0  0  0  0  0  0
   -0.5314    0.5363   -2.2631 O   0  0  0  0  0  0  0  0  0  0  0  0
   -6.6195   -0.0328    0.2648 O   0  0  0  0  0  0  0  0  0  0  0  0
    2.5126    2.0764   -1.7913 S   0  0  0  0  0  0  0  0  0  0  0  0
    2.6993   -2.0859   -0.9405 S   0  0  0  0  0  0  0  0  0  0  0  0
   -0.7948   -0.3393   -1.0697 S   0  0  0  0  0  6  0  0  0  0  0  0
  1 29  1  0
  2  4  2  0
  2 11  1  0
  3  5  2  0
  3 12  1  0
  4 14  1  0
  5 16  1  0
  6  7  2  0
  6 17  1  0
  7 30  1  0
  8 11  2  0
  8 15  1  0
  9 12  2  0
  9 13  1  0
 10 11  1  0
 10 31  1  0
 12 32  1  0
 13 16  2  0
 13 20  1  0
 14 15  2  0
 14 21  1  0
 15 22  1  0
 16 29  1  0
 17 18  2  0
 17 31  1  0
 18 19  1  0
 18 30  1  0
 19 23  2  3
 19 24  1  0
 20 25  2  0
 20 26  1  0
 23 32  1  0
 27 32  2  0
 28 32  2  0
M  END
$$$$
