
     RDKit          3D

 19 20  0  0  0  0  0  0  0  0999 V2000
   -3.4529   -0.8275    2.5670 C   0  0  0  0  0  0  0  0  0  0  0  0
   -2.5246    0.1984    1.9172 C   0  0  0  0  0  0  0  0  0  0  0  0
    4.4124   -2.4985   -0.0056 C   0  0  0  0  0  0  0  0  0  0  0  0
    3.5788   -1.7391    0.8198 C   0  0  0  0  0  0  0  0  0  0  0  0
    4.4863   -2.2172   -1.3725 C   0  0  0  0  0  0  0  0  0  0  0  0
    2.8134   -0.7014    0.2787 C   0  0  0  0  0  0  0  0  0  0  0  0
    3.7220   -1.1801   -1.9166 C   0  0  0  0  0  0  0  0  0  0  0  0
   -1.4093    2.2791   -0.1327 C   0  0  0  0  0  0  0  0  0  0  0  0
   -0.4011    3.1005   -0.6381 C   0  0  0  0  0  0  0  0  0  0  0  0
    2.8707   -0.4242   -1.1008 C   0  0  0  0  0  0  0  0  0  0  0  0
   -1.2702    0.8792   -0.1531 C   0  0  0  0  0  0  0  0  0  0  0  0
    0.7687    2.5418   -1.1565 C   0  0  0  0  0  0  0  0  0  0  0  0
   -2.3795   -0.0100    0.3920 C   0  0  2  0  0  0  0  0  0  0  0  0
   -0.0857    0.3192   -0.6757 C   0  0  0  0  0  0  0  0  0  0  0  0
    0.9440    1.1513   -1.1582 C   0  0  0  0  0  0  0  0  0  0  0  0
    2.0253    3.5998   -1.7797 Cl  0  0  0  0  0  0  0  0  0  0  0  0
    0.0545   -1.0294   -0.7532 F   0  0  0  0  0  0  0  0  0  0  0  0
   -3.6435    0.2477   -0.3150 N   0  0  0  0  0  4  0  0  0  0  0  0
    2.1303    0.6161   -1.6816 O   0  0  0  0  0  0  0  0  0  0  0  0
  1  2  1  0
  2 13  1  0
  3  4  2  0
  3  5  1  0
  4  6  1  0
  5  7  2  0
  6 10  2  0
  7 10  1  0
  8  9  2  0
  8 11  1  0
  9 12  1  0
 10 19  1  0
 11 13  1  0
 11 14  2  0
 12 15  2  0
 12 16  1  0
 13 18  1  6
 14 15  1  0
 14 17  1  0
 15 19  1  0
M  CHG  1  18   1
M  END
$$$$
