
     RDKit          3D

 36 40  0  0  0  0  0  0  0  0999 V2000
   -5.6769    2.4453    1.1346 C   0  0  0  0  0  0  0  0  0  0  0  0
   -6.5275    2.1382   -0.0961 C   0  0  0  0  0  0  0  0  0  0  0  0
    0.3847    1.7640    1.0123 C   0  0  0  0  0  0  0  0  0  0  0  0
    8.0934    0.1367   -1.8405 C   0  0  0  0  0  0  0  0  0  0  0  0
   -0.6977    1.4424    0.1898 C   0  0  0  0  0  0  0  0  0  0  0  0
    8.1694    0.9570   -0.7124 C   0  0  0  0  0  0  0  0  0  0  0  0
    1.6504    1.2398    0.7428 C   0  0  0  0  0  0  0  0  0  0  0  0
    7.0043   -0.7205   -2.0139 C   0  0  0  0  0  0  0  0  0  0  0  0
   -5.4686    1.1287    1.8758 C   0  0  0  0  0  0  0  0  0  0  0  0
   -6.8232    0.6432   -0.0724 C   0  0  0  0  0  0  0  0  0  0  0  0
    0.7564    0.0762   -1.1871 C   0  0  0  0  0  0  0  0  0  0  0  0
   -1.6886    0.2783   -1.8198 C   0  0  0  0  0  0  0  0  0  0  0  0
    6.0614    0.0589    0.0773 C   0  0  0  0  0  0  0  0  0  0  0  0
   -3.5896   -3.7601    1.0898 C   0  0  0  0  0  0  0  0  0  0  0  0
   -0.5231    0.5900   -0.9145 C   0  0  0  0  0  0  0  0  0  0  0  0
    7.1678    0.9052    0.2726 C   0  0  0  0  0  0  0  0  0  0  0  0
    1.8393    0.3733   -0.3392 C   0  0  0  0  0  0  0  0  0  0  0  0
    5.9670   -0.7471   -1.0730 C   0  0  0  0  0  0  0  0  0  0  0  0
   -5.8148    0.0220    0.8872 C   0  0  0  0  0  0  0  0  0  0  0  0
   -2.8100   -0.3630   -1.0527 C   0  0  0  0  0  0  0  0  0  0  0  0
   -2.8681   -1.6369   -0.4834 C   0  0  0  0  0  0  0  0  0  0  0  0
   -2.0654   -2.7862   -0.4739 C   0  0  0  0  0  0  0  0  0  0  0  0
   -4.0033   -1.6133    0.2753 C   0  0  0  0  0  0  0  0  0  0  0  0
    3.5016   -1.3303   -0.9005 C   0  0  0  0  0  0  0  0  0  0  0  0
    7.2245    1.8116    1.4770 C   0  0  0  0  0  0  0  0  0  0  0  0
    6.4997    2.9593    1.2157 F   0  0  0  0  0  0  0  0  0  0  0  0
    8.5309    2.1613    1.7722 F   0  0  0  0  0  0  0  0  0  0  0  0
    6.6847    1.1796    2.5843 F   0  0  0  0  0  0  0  0  0  0  0  0
   -0.9035   -2.9340   -1.2888 N   0  0  0  0  0  0  0  0  0  0  0  0
   -2.4558   -3.8227    0.3260 N   0  0  0  0  0  0  0  0  0  0  0  0
   -4.3754   -2.6461    1.0679 N   0  0  0  0  0  0  0  0  0  0  0  0
    3.1611   -0.1012   -0.6258 N   0  0  0  0  0  0  0  0  0  0  0  0
    4.8526   -1.6327   -1.2770 N   0  0  0  0  0  0  0  0  0  0  0  0
   -3.8821    0.3495   -0.6247 N   0  0  0  0  0  0  0  0  0  0  0  0
   -4.6145   -0.4227    0.1692 N   0  0  0  0  0  0  0  0  0  0  0  0
    2.5822   -2.3799   -0.8331 O   0  0  0  0  0  0  0  0  0  0  0  0
  1  2  1  0
  1  9  1  0
  2 10  1  0
  3  5  2  0
  3  7  1  0
  4  6  2  0
  4  8  1  0
  5 15  1  0
  6 16  1  0
  7 17  2  0
  8 18  2  0
  9 19  1  0
 10 19  1  0
 11 15  2  0
 11 17  1  0
 12 15  1  0
 12 20  1  0
 13 16  2  0
 13 18  1  0
 14 30  2  0
 14 31  1  0
 16 25  1  0
 17 32  1  0
 18 33  1  0
 19 35  1  0
 20 21  1  0
 20 34  2  0
 21 22  2  0
 21 23  1  0
 22 29  1  0
 22 30  1  0
 23 31  2  0
 23 35  1  0
 24 32  2  3
 24 33  1  0
 24 36  1  0
 25 26  1  0
 25 27  1  0
 25 28  1  0
 34 35  1  0
M  END
$$$$
