1OIF_IFM_A_1447_
     RDKit          3D

 10 10  0  0  0  0  0  0  0  0999 V2000
   -1.7170   10.6587    6.5676 O   0  0  0  0  0  0  0  0  0  0  0  0
   -1.3101   10.4507    7.9240 C   0  0  0  0  0  0  0  0  0  0  0  0
   -0.4369   11.6868    8.3297 C   0  0  0  0  0  0  0  0  0  0  0  0
    0.6563   11.9846    7.4667 O   0  0  0  0  0  0  0  0  0  0  0  0
    0.0409   11.6485    9.7916 C   0  0  0  0  0  0  0  0  0  0  0  0
   -1.0367   11.2906   10.7349 N   0  0  0  0  0  0  0  0  0  0  0  0
   -1.8612   10.1252   10.3469 C   0  0  0  0  0  0  0  0  0  0  0  0
   -2.4837   10.3117    8.9457 C   0  0  0  0  0  0  0  0  0  0  0  0
   -3.4192    9.1132    8.6785 C   0  0  0  0  0  0  0  0  0  0  0  0
   -2.6991    7.9181    9.0205 O   0  0  0  0  0  0  0  0  0  0  0  0
  1  2  1  0
  2  3  1  0
  3  4  1  0
  3  5  1  0
  5  6  1  0
  6  7  1  0
  2  8  1  0
  7  8  1  0
  8  9  1  0
  9 10  1  0
M  END
$$$$
