
     RDKit          3D

 10 10  0  0  0  0  0  0  0  0999 V2000
   -2.5063    0.3180    0.3176 C   0  0  0  0  0  0  0  0  0  0  0  0
    0.1714   -1.6129    0.0514 C   0  0  0  0  0  0  0  0  0  0  0  0
   -1.2632    0.2775   -0.5891 C   0  0  1  0  0  0  0  0  0  0  0  0
    1.4961   -0.8391   -0.1169 C   0  0  2  0  0  0  0  0  0  0  0  0
   -0.0982    1.1599   -0.0421 C   0  0  2  0  0  0  0  0  0  0  0  0
    1.2477    0.6251   -0.5729 C   0  0  1  0  0  0  0  0  0  0  0  0
   -0.8442   -1.1146   -0.8839 N   0  0  0  0  0  0  0  0  0  0  0  0
    2.3031   -1.4980   -1.0586 O   0  0  0  0  0  0  0  0  0  0  0  0
   -0.0919    1.1590    1.3666 O   0  0  0  0  0  0  0  0  0  0  0  0
    2.3147    1.4660   -0.2086 O   0  0  0  0  0  0  0  0  0  0  0  0
  3  1  1  1
  2  4  1  0
  2  7  1  0
  3  5  1  0
  3  7  1  0
  4  6  1  0
  4  8  1  6
  5  6  1  0
  5  9  1  1
  6 10  1  1
M  END
$$$$
