2XII_TA9_A_1002_
     RDKit          3D

 28 31  0  0  0  0  0  0  0  0999 V2000
  -30.9770    3.2880   24.2500 C   0  0  0  0  0  0  0  0  0  0  0  0
  -31.7760    3.8580   25.2470 C   0  0  0  0  0  0  0  0  0  0  0  0
  -31.6940    3.6410   26.4590 O   0  0  0  0  0  0  0  0  0  0  0  0
  -32.7310    4.6830   24.6720 C   0  0  0  0  0  0  0  0  0  0  0  0
  -33.7340    5.4850   25.2140 C   0  0  0  0  0  0  0  0  0  0  0  0
  -34.5360    6.2400   24.3430 C   0  0  0  0  0  0  0  0  0  0  0  0
  -34.3470    6.1870   22.9550 C   0  0  0  0  0  0  0  0  0  0  0  0
  -33.3450    5.3830   22.4260 C   0  0  0  0  0  0  0  0  0  0  0  0
  -32.5470    4.6160   23.2820 C   0  0  0  0  0  0  0  0  0  0  0  0
  -31.4820    3.7500   23.0260 C   0  0  0  0  0  0  0  0  0  0  0  0
  -30.9050    3.3320   21.8290 C   0  0  0  0  0  0  0  0  0  0  0  0
  -29.8160    2.4640   21.8430 C   0  0  0  0  0  0  0  0  0  0  0  0
  -29.3080    1.9980   23.0570 C   0  0  0  0  0  0  0  0  0  0  0  0
  -29.8880    2.4070   24.2600 C   0  0  0  0  0  0  0  0  0  0  0  0
  -29.2490    1.8770   25.5580 C   0  0  0  0  0  0  0  0  0  0  0  0
  -28.7230    0.7710   25.5740 O   0  0  0  0  0  0  0  0  0  0  0  0
  -29.1040    2.7710   26.5420 N   0  0  0  0  0  0  0  0  0  0  0  0
  -28.4690    2.4570   27.8070 C   0  0  0  0  0  0  0  0  0  0  0  0
  -26.9690    2.3750   27.6440 C   0  0  0  0  0  0  0  0  0  0  0  0
  -26.4510    3.7110   27.2650 N   0  0  0  0  0  0  0  0  0  0  0  0
  -24.9780    3.5580   26.9930 C   0  0  0  0  0  0  0  0  0  0  0  0
  -24.4140    4.9650   26.6290 C   0  0  0  0  0  0  0  0  0  0  0  0
  -24.2420    2.9390   28.1480 C   0  0  0  0  0  0  0  0  0  0  0  0
  -24.2530    3.8370   29.2490 O   0  0  0  0  0  0  0  0  0  0  0  0
  -24.8840    1.6100   28.5990 C   0  0  0  0  0  0  0  0  0  0  0  0
  -24.1560    1.0900   29.7290 O   0  0  0  0  0  0  0  0  0  0  0  0
  -26.3310    1.8900   28.9400 C   0  0  0  0  0  0  0  0  0  0  0  0
  -26.9970    0.6840   29.3880 O   0  0  0  0  0  0  0  0  0  0  0  0
  1  2  1  0
  2  3  2  0
  2  4  1  0
  4  5  1  0
  5  6  2  0
  6  7  1  0
  7  8  2  0
  4  9  2  0
  8  9  1  0
  1 10  2  0
  9 10  1  0
 10 11  1  0
 11 12  2  0
 12 13  1  0
  1 14  1  0
 13 14  2  0
 14 15  1  0
 15 16  2  0
 15 17  1  0
 17 18  1  0
 18 19  1  0
 19 20  1  0
 20 21  1  0
 21 22  1  0
 21 23  1  0
 23 24  1  0
 23 25  1  0
 25 26  1  0
 19 27  1  0
 25 27  1  0
 27 28  1  0
M  END
$$$$
