
     RDKit          3D

 15 15  0  0  0  0  0  0  0  0999 V2000
    4.7194   -0.8122    0.5985 C   0  0  0  0  0  0  0  0  0  0  0  0
    3.5213    0.1190    0.7600 C   0  0  0  0  0  0  0  0  0  0  0  0
    2.2513   -0.5028    0.1653 C   0  0  0  0  0  0  0  0  0  0  0  0
    1.0379    0.4290    0.3456 C   0  0  0  0  0  0  0  0  0  0  0  0
   -0.5609   -1.4109    0.1484 C   0  0  0  0  0  0  0  0  0  0  0  0
   -0.8808    2.3662   -0.7223 C   0  0  0  0  0  0  0  0  0  0  0  0
   -1.2988    0.8998   -0.4622 C   0  0  2  0  0  0  0  0  0  0  0  0
   -2.0695   -1.7080    0.0585 C   0  0  1  0  0  0  0  0  0  0  0  0
   -2.2359    0.7671    0.7669 C   0  0  2  0  0  0  0  0  0  0  0  0
   -2.8870   -0.6416    0.8285 C   0  0  2  0  0  0  0  0  0  0  0  0
   -0.1591   -0.0732   -0.3828 N   0  0  0  0  0  0  0  0  0  0  0  0
   -0.0423    2.4357   -1.8434 O   0  0  0  0  0  0  0  0  0  0  0  0
   -2.4802   -1.7546   -1.2849 O   0  0  0  0  0  0  0  0  0  0  0  0
   -3.2317    1.7615    0.7798 O   0  0  0  0  0  0  0  0  0  0  0  0
   -3.0190   -1.0187    2.1762 O   0  0  0  0  0  0  0  0  0  0  0  0
  1  2  1  0
  2  3  1  0
  3  4  1  0
  4 11  1  0
  5  8  1  0
  5 11  1  0
  7  6  1  1
  6 12  1  0
  7  9  1  0
  7 11  1  0
  8 10  1  0
  8 13  1  6
  9 10  1  0
  9 14  1  6
 10 15  1  1
M  END
$$$$
