4AGL_P84_B_400_
     RDKit          3D

 13 13  0  0  0  0  0  0  0  0999 V2000
  123.9662  105.1631  -44.7674 C   0  0  0  0  0  0  0  0  0  0  0  0
  124.3064  104.9843  -43.4188 C   0  0  0  0  0  0  0  0  0  0  0  0
  124.6002  103.7093  -42.9282 C   0  0  0  0  0  0  0  0  0  0  0  0
  123.6174  106.5316  -45.3271 C   0  0  0  0  0  0  0  0  0  0  0  0
  124.3279  107.6413  -44.6663 N   0  0  0  0  0  0  0  0  0  0  0  0
  124.5616  102.5879  -43.7642 C   0  0  0  0  0  0  0  0  0  0  0  0
  123.9215  104.0278  -45.6005 C   0  0  0  0  0  0  0  0  0  0  0  0
  125.7472  107.7785  -45.0671 C   0  0  0  0  0  0  0  0  0  0  0  0
  124.2234  102.7547  -45.1079 C   0  0  0  0  0  0  0  0  0  0  0  0
  125.1152  103.4791  -40.9056 I   0  0  0  0  0  0  0  0  0  0  0  0
  124.3418  106.0817  -42.5958 O   0  0  0  0  0  0  0  0  0  0  0  0
  124.1336  101.1174  -46.4070 I   0  0  0  0  0  0  0  0  0  0  0  0
  123.5910  108.9060  -44.8154 C   0  0  0  0  0  0  0  0  0  0  0  0
  1  2  2  0
  2  3  1  0
  1  4  1  0
  4  5  1  0
  3  6  2  0
  1  7  1  0
  5  8  1  0
  6  9  1  0
  7  9  2  0
  3 10  1  0
  2 11  1  0
  9 12  1  0
  5 13  1  0
M  END
$$$$
