4AGM_P86_B_400_
     RDKit          3D

 21 22  0  0  0  0  0  0  0  0999 V2000
  124.1850  102.7980  -45.0610 C   0  0  0  0  0  0  0  0  0  0  0  0
  123.7890  105.1680  -44.7120 C   0  0  0  0  0  0  0  0  0  0  0  0
  123.9940  107.6590  -44.5320 N   0  0  0  0  0  0  0  0  0  0  0  0
  124.2110  106.1570  -42.5750 O   0  0  0  0  0  0  0  0  0  0  0  0
  124.5910  102.6360  -43.7370 C   0  0  0  0  0  0  0  0  0  0  0  0
  123.3280  106.5080  -45.2320 C   0  0  0  0  0  0  0  0  0  0  0  0
  125.7270  111.6310  -44.3040 N   0  0  0  0  0  0  0  0  0  0  0  0
  123.1010  108.8790  -44.5310 C   0  0  0  0  0  0  0  0  0  0  0  0
  123.7900  104.0460  -45.5580 C   0  0  0  0  0  0  0  0  0  0  0  0
  124.5900  103.7660  -42.9090 C   0  0  0  0  0  0  0  0  0  0  0  0
  124.1940  105.0410  -43.3630 C   0  0  0  0  0  0  0  0  0  0  0  0
  123.8010  110.0500  -43.8610 C   0  0  0  0  0  0  0  0  0  0  0  0
  125.0550  110.3290  -44.6830 C   0  0  0  0  0  0  0  0  0  0  0  0
  126.8850  112.0210  -45.2090 C   0  0  0  0  0  0  0  0  0  0  0  0
  126.4290  112.6780  -46.5050 C   0  0  0  0  0  0  0  0  0  0  0  0
  126.1050  111.6590  -42.8410 C   0  0  0  0  0  0  0  0  0  0  0  0
  126.4710  113.0630  -42.3790 C   0  0  0  0  0  0  0  0  0  0  0  0
  126.0160  109.1500  -44.5270 C   0  0  0  0  0  0  0  0  0  0  0  0
  125.3480  107.9230  -45.1340 C   0  0  0  0  0  0  0  0  0  0  0  0
  124.1890  101.1350  -46.3670 I   0  0  0  0  0  0  0  0  0  0  0  0
  125.1750  103.5250  -40.8850 I   0  0  0  0  0  0  0  0  0  0  0  0
  1  5  2  0
  2  6  1  0
  3  6  1  0
  3  8  1  0
  1  9  1  0
  2  9  2  0
  5 10  1  0
  2 11  1  0
  4 11  1  0
 10 11  2  0
  8 12  1  0
  7 13  1  0
 12 13  1  0
  7 14  1  0
 14 15  1  0
  7 16  1  0
 16 17  1  0
 13 18  1  0
  3 19  1  0
 18 19  1  0
  1 20  1  0
 10 21  1  0
M  END
$$$$
